
CDXL12

  2  1  0  0  0  0  0  0  0  0999 V2000
    0.4125    0.0000    0.0000 O   0  0  0  0  0  0  0  2  0  0  0  0
   -0.4125    0.0000    0.0000 C   0  0  0  0  0  0  0  2  0  0  0  0
  1  2  2  0        0
M  END
>  <CAS RN>
50000

>  <SMILES>
O=C

>  <Measured or Estimated Log10(mmol/L)>
-0.0462856

$$$$

CDXL12

 19 20  0  0  0  0  0  0  0  0999 V2000
    0.0000   -1.2375    0.0000 C   0  0  0  0  0  0  0  2  0  0  0  0
    0.0000   -2.0625    0.0000 C   0  0  0  0  0  0  0  2  0  0  0  0
   -0.7145   -2.4750    0.0000 C   0  0  0  0  0  0  0  2  0  0  0  0
   -1.4289   -2.0625    0.0000 C   0  0  0  0  0  0  0  2  0  0  0  0
   -1.4289   -1.2375    0.0000 C   0  0  0  0  0  0  0  2  0  0  0  0
   -0.7145   -0.8250    0.0000 C   0  0  0  0  0  0  0  2  0  0  0  0
   -2.1434   -2.4750    0.0000 Cl  0  0  0  0  0  0  0  2  0  0  0  0
    0.7145   -0.8250    0.0000 C   0  0  0  0  0  0  0  2  0  0  0  0
    0.7145   -0.0000    0.0000 C   0  0  0  0  0  0  0  2  0  0  0  0
    0.0000    0.4125    0.0000 C   0  0  0  0  0  0  0  2  0  0  0  0
    0.0000    1.2375    0.0000 C   0  0  0  0  0  0  0  2  0  0  0  0
    0.7145    1.6500    0.0000 C   0  0  0  0  0  0  0  2  0  0  0  0
    1.4289    1.2375    0.0000 C   0  0  0  0  0  0  0  2  0  0  0  0
    1.4289    0.4125    0.0000 C   0  0  0  0  0  0  0  2  0  0  0  0
    0.7145    2.4750    0.0000 Cl  0  0  0  0  0  0  0  2  0  0  0  0
    1.4289   -1.2375    0.0000 C   0  0  0  0  0  0  0  2  0  0  0  0
    2.1434   -0.8250    0.0000 Cl  0  0  0  0  0  0  0  2  0  0  0  0
    1.4289   -2.0625    0.0000 Cl  0  0  0  0  0  0  0  2  0  0  0  0
    2.1434   -1.6500    0.0000 Cl  0  0  0  0  0  0  0  2  0  0  0  0
  1  2  4  0        0
  2  3  4  0        0
  3  4  4  0        0
  4  5  4  0        0
  5  6  4  0        0
  1  6  4  0        0
  4  7  1  0        0
  1  8  1  0        0
  8  9  1  0        0
  9 10  4  0        0
 10 11  4  0        0
 11 12  4  0        0
 12 13  4  0        0
 13 14  4  0        0
  9 14  4  0        0
 12 15  1  0        0
  8 16  1  0        0
 16 17  1  0        0
 16 18  1  0        0
 16 19  1  0        0
M  END
>  <CAS RN>
50293

>  <SMILES>
c1(ccc(cc1)Cl)C(c1ccc(cc1)Cl)C(Cl)(Cl)Cl

>  <Measured or Estimated Log10(mmol/L)>
-5.072483959

$$$$

CDXL12

 20 24  0  0  0  0  0  0  0  0999 V2000
    0.3572   -0.2063    0.0000 C   0  0  0  0  0  0  0  2  0  0  0  0
    1.0717    0.2062    0.0000 C   0  0  0  0  0  0  0  2  0  0  0  0
    1.0717    1.0312    0.0000 C   0  0  0  0  0  0  0  2  0  0  0  0
    0.3572    1.4438    0.0000 C   0  0  0  0  0  0  0  2  0  0  0  0
   -0.3572    1.0313    0.0000 C   0  0  0  0  0  0  0  2  0  0  0  0
   -0.3572    0.2062    0.0000 C   0  0  0  0  0  0  0  2  0  0  0  0
   -1.0717   -0.2063    0.0000 C   0  0  0  0  0  0  0  2  0  0  0  0
   -1.0717   -1.0313    0.0000 C   0  0  0  0  0  0  0  2  0  0  0  0
   -0.3572   -1.4438    0.0000 C   0  0  0  0  0  0  0  2  0  0  0  0
    0.3572   -1.0312    0.0000 C   0  0  0  0  0  0  0  2  0  0  0  0
    1.0717   -1.4437    0.0000 C   0  0  0  0  0  0  0  2  0  0  0  0
    1.7862   -1.0312    0.0000 C   0  0  0  0  0  0  0  2  0  0  0  0
    1.7862   -0.2063    0.0000 C   0  0  0  0  0  0  0  2  0  0  0  0
    2.5006    0.2062    0.0000 C   0  0  0  0  0  0  0  2  0  0  0  0
    2.5006    1.0312    0.0000 C   0  0  0  0  0  0  0  2  0  0  0  0
    1.7862    1.4437    0.0000 C   0  0  0  0  0  0  0  2  0  0  0  0
   -1.7862   -1.4438    0.0000 C   0  0  0  0  0  0  0  2  0  0  0  0
   -2.5006   -1.0313    0.0000 C   0  0  0  0  0  0  0  2  0  0  0  0
   -2.5006   -0.2063    0.0000 C   0  0  0  0  0  0  0  2  0  0  0  0
   -1.7862    0.2062    0.0000 C   0  0  0  0  0  0  0  2  0  0  0  0
  1  2  4  0        0
  2  3  4  0        0
  3  4  4  0        0
  4  5  4  0        0
  5  6  4  0        0
  1  6  4  0        0
  6  7  4  0        0
  7  8  4  0        0
  8  9  4  0        0
  9 10  4  0        0
  1 10  4  0        0
 10 11  4  0        0
 11 12  4  0        0
 12 13  4  0        0
  2 13  4  0        0
 13 14  4  0        0
 14 15  4  0        0
 15 16  4  0        0
  3 16  4  0        0
  8 17  4  0        0
 17 18  4  0        0
 18 19  4  0        0
 19 20  4  0        0
  7 20  4  0        0
M  END
>  <CAS RN>
50328

>  <SMILES>
c12c3c4ccc1c1c(cc2ccc3ccc4)cccc1

>  <Measured or Estimated Log10(mmol/L)>
-3.004004782

$$$$

CDXL12

 24 25  0  0  0  0  0  0  0  0999 V2000
    5.1511    0.6674    0.0000 O   0  0  0  0  0  0  0  2  0  0  0  0
    4.3665    0.4125    0.0000 C   0  0  0  0  0  0  0  2  0  0  0  0
    4.3665   -0.4125    0.0000 C   0  0  0  0  0  0  0  2  0  0  0  0
    5.1511   -0.6674    0.0000 O   0  0  0  0  0  0  0  2  0  0  0  0
    5.6361   -0.0000    0.0000 C   0  0  0  0  0  0  0  2  0  0  0  0
    3.6521   -0.8250    0.0000 C   0  0  0  0  0  0  0  2  0  0  0  0
    2.9376   -0.4125    0.0000 C   0  0  0  0  0  0  0  2  0  0  0  0
    2.9376    0.4125    0.0000 C   0  0  0  0  0  0  0  2  0  0  0  0
    2.2231    0.8250    0.0000 C   0  0  0  0  0  0  0  2  0  0  0  0
    1.5086    0.4125    0.0000 C   0  0  0  0  0  0  0  2  0  0  0  0
    0.7942    0.8250    0.0000 C   0  0  0  0  0  0  0  2  0  0  0  0
    3.6521    0.8250    0.0000 C   0  0  0  0  0  0  0  2  0  0  0  0
    2.2231   -0.8250    0.0000 C   0  0  0  0  0  0  0  2  0  0  0  0
    1.5086   -0.4125    0.0000 O   0  0  0  0  0  0  0  2  0  0  0  0
    0.7942   -0.8250    0.0000 C   0  0  0  0  0  0  0  2  0  0  0  0
    0.0797   -0.4125    0.0000 C   0  0  0  0  0  0  0  2  0  0  0  0
   -0.6348   -0.8250    0.0000 O   0  0  0  0  0  0  0  2  0  0  0  0
   -1.3492   -0.4125    0.0000 C   0  0  0  0  0  0  0  2  0  0  0  0
   -2.0637   -0.8250    0.0000 C   0  0  0  0  0  0  0  2  0  0  0  0
   -2.7782   -0.4125    0.0000 O   0  0  0  0  0  0  0  2  0  0  0  0
   -3.4927   -0.8250    0.0000 C   0  0  0  0  0  0  0  2  0  0  0  0
   -4.2071   -0.4125    0.0000 C   0  0  0  0  0  0  0  2  0  0  0  0
   -4.9216   -0.8250    0.0000 C   0  0  0  0  0  0  0  2  0  0  0  0
   -5.6361   -0.4125    0.0000 C   0  0  0  0  0  0  0  2  0  0  0  0
  1  2  1  0        0
  2  3  4  0        0
  3  4  1  0        0
  4  5  1  0        0
  1  5  1  0        0
  3  6  4  0        0
  6  7  4  0        0
  7  8  4  0        0
  8  9  1  0        0
  9 10  1  0        0
 10 11  1  0        0
  8 12  4  0        0
  2 12  4  0        0
  7 13  1  0        0
 13 14  1  0        0
 14 15  1  0        0
 15 16  1  0        0
 16 17  1  0        0
 17 18  1  0        0
 18 19  1  0        0
 19 20  1  0        0
 20 21  1  0        0
 21 22  1  0        0
 22 23  1  0        0
 23 24  1  0        0
M  END
>  <CAS RN>
51036

>  <SMILES>
O1c2c(OC1)cc(c(CCC)c2)COCCOCCOCCCC

>  <Measured or Estimated Log10(mmol/L)>
-2.077700384

$$$$

CDXL12

 13 13  0  0  0  0  0  0  0  0999 V2000
   -1.4289    1.2375    0.0000 O   0  0  0  0  0  0  0  2  0  0  0  0
   -1.4289    0.4125    0.0000 N   0  0  0  0  0  0  0  2  0  0  0  0
   -2.1434   -0.0000    0.0000 O   0  0  0  0  0  0  0  2  0  0  0  0
   -0.7145   -0.0000    0.0000 C   0  0  0  0  0  0  0  2  0  0  0  0
   -0.7145   -0.8250    0.0000 C   0  0  0  0  0  0  0  2  0  0  0  0
    0.0000   -1.2375    0.0000 C   0  0  0  0  0  0  0  2  0  0  0  0
    0.7145   -0.8250    0.0000 C   0  0  0  0  0  0  0  2  0  0  0  0
    1.4289   -1.2375    0.0000 O   0  0  0  0  0  0  0  2  0  0  0  0
    0.7145   -0.0000    0.0000 C   0  0  0  0  0  0  0  2  0  0  0  0
    1.4289    0.4125    0.0000 N   0  0  0  0  0  0  0  2  0  0  0  0
    1.4289    1.2375    0.0000 O   0  0  0  0  0  0  0  2  0  0  0  0
    2.1434   -0.0000    0.0000 O   0  0  0  0  0  0  0  2  0  0  0  0
    0.0000    0.4125    0.0000 C   0  0  0  0  0  0  0  2  0  0  0  0
  1  2  2  0        0
  2  3  2  0        0
  2  4  1  0        0
  4  5  4  0        0
  5  6  4  0        0
  6  7  4  0        0
  7  8  1  0        0
  7  9  4  0        0
  9 10  1  0        0
 10 11  2  0        0
 10 12  2  0        0
  9 13  4  0        0
  4 13  4  0        0
M  END
>  <CAS RN>
51285

>  <SMILES>
O=N(=O)c1ccc(O)c(N(=O)=O)c1

>  <Measured or Estimated Log10(mmol/L)>
-1.652286445

$$$$

CDXL12

 12 11  0  0  0  0  0  0  0  0999 V2000
    1.7862    0.2062    0.0000 C   0  0  0  0  0  0  0  2  0  0  0  0
    1.0717   -0.2062    0.0000 O   0  0  0  0  0  0  0  2  0  0  0  0
    0.3572    0.2062    0.0000 P   0  0  0  0  0  0  0  2  0  0  0  0
    0.3572    1.0313    0.0000 O   0  0  0  0  0  0  0  2  0  0  0  0
    0.3572   -0.6188    0.0000 O   0  0  0  0  0  0  0  2  0  0  0  0
    1.0717   -1.0313    0.0000 C   0  0  0  0  0  0  0  2  0  0  0  0
   -0.3572   -0.2062    0.0000 C   0  0  0  0  0  0  0  2  0  0  0  0
   -0.3572   -1.0313    0.0000 O   0  0  0  0  0  0  0  2  0  0  0  0
   -1.0717    0.2062    0.0000 C   0  0  0  0  0  0  0  2  0  0  0  0
   -1.7862   -0.2062    0.0000 Cl  0  0  0  0  0  0  0  2  0  0  0  0
   -1.0717    1.0313    0.0000 Cl  0  0  0  0  0  0  0  2  0  0  0  0
   -1.7862    0.6187    0.0000 Cl  0  0  0  0  0  0  0  2  0  0  0  0
  1  2  1  0        0
  2  3  1  0        0
  3  4  2  0        0
  3  5  1  0        0
  5  6  1  0        0
  3  7  1  0        0
  7  8  1  0        0
  7  9  1  0        0
  9 10  1  0        0
  9 11  1  0        0
  9 12  1  0        0
M  END
>  <CAS RN>
52686

>  <SMILES>
COP(=O)(OC)C(O)C(Cl)(Cl)Cl

>  <Measured or Estimated Log10(mmol/L)>
-3.313760953

$$$$

CDXL12

 12 13  0  0  0  0  0  0  0  0999 V2000
   -1.0101   -1.5113    0.0000 N   0  0  0  0  0  0  0  2  0  0  0  0
   -1.7246   -1.0988    0.0000 C   0  0  0  0  0  0  0  2  0  0  0  0
   -1.7246   -0.2738    0.0000 C   0  0  0  0  0  0  0  2  0  0  0  0
   -1.0101    0.1387    0.0000 C   0  0  0  0  0  0  0  2  0  0  0  0
   -0.2956   -0.2738    0.0000 C   0  0  0  0  0  0  0  2  0  0  0  0
    0.4189    0.1387    0.0000 C   0  0  0  0  0  0  0  2  0  0  0  0
    0.5051    0.9592    0.0000 N   0  0  0  0  0  0  0  2  0  0  0  0
    1.3121    1.1308    0.0000 C   0  0  0  0  0  0  0  2  0  0  0  0
    1.7246    0.4163    0.0000 C   0  0  0  0  0  0  0  2  0  0  0  0
    1.1725   -0.1968    0.0000 C   0  0  0  0  0  0  0  2  0  0  0  0
   -0.1080    1.5113    0.0000 C   0  0  0  0  0  0  0  2  0  0  0  0
   -0.2956   -1.0988    0.0000 C   0  0  0  0  0  0  0  2  0  0  0  0
  1  2  4  0        0
  2  3  4  0        0
  3  4  4  0        0
  4  5  4  0        0
  5  6  1  0        0
  6  7  1  0        0
  7  8  1  0        0
  8  9  1  0        0
  9 10  1  0        0
  6 10  1  0        0
  7 11  1  0        0
  5 12  4  0        0
  1 12  4  0        0
M  END
>  <CAS RN>
54115

>  <SMILES>
n1cccc(C2N(CCC2)C)c1

>  <Measured or Estimated Log10(mmol/L)>
-2.83

$$$$

CDXL12

 16 16  0  0  0  0  0  0  0  0999 V2000
    2.8579   -0.0000    0.0000 C   0  0  0  0  0  0  0  2  0  0  0  0
    2.1434   -0.4125    0.0000 O   0  0  0  0  0  0  0  2  0  0  0  0
    1.4289    0.0000    0.0000 P   0  0  0  0  0  0  0  2  0  0  0  0
    1.4289    0.8250    0.0000 S   0  0  0  0  0  0  0  2  0  0  0  0
    1.4289   -0.8250    0.0000 O   0  0  0  0  0  0  0  2  0  0  0  0
    2.1434   -1.2375    0.0000 C   0  0  0  0  0  0  0  2  0  0  0  0
    0.7145   -0.4125    0.0000 O   0  0  0  0  0  0  0  2  0  0  0  0
    0.0000   -0.0000    0.0000 C   0  0  0  0  0  0  0  2  0  0  0  0
    0.0000    0.8250    0.0000 C   0  0  0  0  0  0  0  2  0  0  0  0
   -0.7145    1.2375    0.0000 C   0  0  0  0  0  0  0  2  0  0  0  0
   -1.4289    0.8250    0.0000 C   0  0  0  0  0  0  0  2  0  0  0  0
   -2.1434    1.2375    0.0000 S   0  0  0  0  0  0  0  2  0  0  0  0
   -2.8579    0.8250    0.0000 C   0  0  0  0  0  0  0  2  0  0  0  0
   -1.4289   -0.0000    0.0000 C   0  0  0  0  0  0  0  2  0  0  0  0
   -2.1434   -0.4125    0.0000 C   0  0  0  0  0  0  0  2  0  0  0  0
   -0.7145   -0.4125    0.0000 C   0  0  0  0  0  0  0  2  0  0  0  0
  1  2  1  0        0
  2  3  1  0        0
  3  4  2  0        0
  3  5  1  0        0
  5  6  1  0        0
  3  7  1  0        0
  7  8  1  0        0
  8  9  4  0        0
  9 10  4  0        0
 10 11  4  0        0
 11 12  1  0        0
 12 13  1  0        0
 11 14  4  0        0
 14 15  1  0        0
 14 16  4  0        0
  8 16  4  0        0
M  END
>  <CAS RN>
55389

>  <SMILES>
COP(=S)(OC)Oc1ccc(SC)c(C)c1

>  <Measured or Estimated Log10(mmol/L)>
-5.101798

$$$$

CDXL12

 15 14  0  0  0  0  0  0  0  0999 V2000
   -2.1434   -1.6500    0.0000 O   0  0  0  0  0  0  0  2  0  0  0  0
   -2.1434   -0.8250    0.0000 N   0  0  0  0  0  0  0  2  0  0  0  0
   -2.8579   -0.4125    0.0000 O   0  0  0  0  0  0  0  2  0  0  0  0
   -1.4289   -0.4125    0.0000 O   0  0  0  0  0  0  0  2  0  0  0  0
   -0.7145   -0.8250    0.0000 C   0  0  0  0  0  0  0  2  0  0  0  0
    0.0000   -0.4125    0.0000 C   0  0  0  0  0  0  0  2  0  0  0  0
    0.0000    0.4125    0.0000 O   0  0  0  0  0  0  0  2  0  0  0  0
   -0.7145    0.8250    0.0000 N   0  0  0  0  0  0  0  2  0  0  0  0
   -0.7145    1.6500    0.0000 O   0  0  0  0  0  0  0  2  0  0  0  0
   -1.4289    0.4125    0.0000 O   0  0  0  0  0  0  0  2  0  0  0  0
    0.7145   -0.8250    0.0000 C   0  0  0  0  0  0  0  2  0  0  0  0
    1.4289   -0.4125    0.0000 O   0  0  0  0  0  0  0  2  0  0  0  0
    2.1434   -0.8250    0.0000 N   0  0  0  0  0  0  0  2  0  0  0  0
    2.8579   -0.4125    0.0000 O   0  0  0  0  0  0  0  2  0  0  0  0
    2.1434   -1.6500    0.0000 O   0  0  0  0  0  0  0  2  0  0  0  0
  1  2  2  0        0
  2  3  2  0        0
  2  4  1  0        0
  4  5  1  0        0
  5  6  1  0        0
  6  7  1  0        0
  7  8  1  0        0
  8  9  2  0        0
  8 10  2  0        0
  6 11  1  0        0
 11 12  1  0        0
 12 13  1  0        0
 13 14  2  0        0
 13 15  2  0        0
M  END
>  <CAS RN>
55630

>  <SMILES>
O=N(=O)OCC(ON(=O)=O)CON(=O)=O

>  <Measured or Estimated Log10(mmol/L)>
-0.85103847

$$$$

CDXL12

  5  4  0  0  0  0  0  0  0  0999 V2000
    0.0000   -0.0000    0.0000 C   0  0  0  0  0  0  0  2  0  0  0  0
   -0.8250   -0.0000    0.0000 Cl  0  0  0  0  0  0  0  2  0  0  0  0
    0.0000   -0.8250    0.0000 Cl  0  0  0  0  0  0  0  2  0  0  0  0
    0.8250   -0.0000    0.0000 Cl  0  0  0  0  0  0  0  2  0  0  0  0
    0.0000    0.8250    0.0000 Cl  0  0  0  0  0  0  0  2  0  0  0  0
  1  2  1  0        0
  1  3  1  0        0
  1  4  1  0        0
  1  5  1  0        0
M  END
>  <CAS RN>
56235

>  <SMILES>
C(Cl)(Cl)(Cl)Cl

>  <Measured or Estimated Log10(mmol/L)>
-0.961298865

$$$$

CDXL12

 27 26  0  0  0  0  0  0  0  0999 V2000
    2.8579   -0.7145    0.0000 C   0  0  0  0  0  0  0  2  0  0  0  0
    2.1434   -1.1270    0.0000 C   0  0  0  0  0  0  0  2  0  0  0  0
    1.4289   -0.7145    0.0000 C   0  0  0  0  0  0  0  2  0  0  0  0
    0.7145   -1.1270    0.0000 C   0  0  0  0  0  0  0  2  0  0  0  0
    0.0000   -0.7145    0.0000 Sn  0  0  0  0  0  0  0  2  0  0  0  0
   -0.7145   -0.3020    0.0000 C   0  0  0  0  0  0  0  2  0  0  0  0
   -1.4289   -0.7145    0.0000 C   0  0  0  0  0  0  0  2  0  0  0  0
   -2.1434   -0.3020    0.0000 C   0  0  0  0  0  0  0  2  0  0  0  0
   -2.8579   -0.7145    0.0000 C   0  0  0  0  0  0  0  2  0  0  0  0
   -0.4125   -1.4289    0.0000 C   0  0  0  0  0  0  0  2  0  0  0  0
   -1.2375   -1.4289    0.0000 C   0  0  0  0  0  0  0  2  0  0  0  0
   -1.6500   -2.1434    0.0000 C   0  0  0  0  0  0  0  2  0  0  0  0
   -2.4750   -2.1434    0.0000 C   0  0  0  0  0  0  0  2  0  0  0  0
    0.4125    0.0000    0.0000 O   0  0  0  0  0  0  0  2  0  0  0  0
    0.0000    0.7145    0.0000 Sn  0  0  0  0  0  0  0  2  0  0  0  0
   -0.7145    0.3020    0.0000 C   0  0  0  0  0  0  0  2  0  0  0  0
   -1.4289    0.7145    0.0000 C   0  0  0  0  0  0  0  2  0  0  0  0
   -2.1434    0.3020    0.0000 C   0  0  0  0  0  0  0  2  0  0  0  0
   -2.8579    0.7145    0.0000 C   0  0  0  0  0  0  0  2  0  0  0  0
   -0.4125    1.4289    0.0000 C   0  0  0  0  0  0  0  2  0  0  0  0
   -1.2375    1.4289    0.0000 C   0  0  0  0  0  0  0  2  0  0  0  0
   -1.6500    2.1434    0.0000 C   0  0  0  0  0  0  0  2  0  0  0  0
   -2.4750    2.1434    0.0000 C   0  0  0  0  0  0  0  2  0  0  0  0
    0.7145    1.1270    0.0000 C   0  0  0  0  0  0  0  2  0  0  0  0
    1.4289    0.7145    0.0000 C   0  0  0  0  0  0  0  2  0  0  0  0
    2.1434    1.1270    0.0000 C   0  0  0  0  0  0  0  2  0  0  0  0
    2.8579    0.7145    0.0000 C   0  0  0  0  0  0  0  2  0  0  0  0
  1  2  1  0        0
  2  3  1  0        0
  3  4  1  0        0
  4  5  1  0        0
  5  6  1  0        0
  6  7  1  0        0
  7  8  1  0        0
  8  9  1  0        0
  5 10  1  0        0
 10 11  1  0        0
 11 12  1  0        0
 12 13  1  0        0
  5 14  1  0        0
 14 15  1  0        0
 15 16  1  0        0
 16 17  1  0        0
 17 18  1  0        0
 18 19  1  0        0
 15 20  1  0        0
 20 21  1  0        0
 21 22  1  0        0
 22 23  1  0        0
 15 24  1  0        0
 24 25  1  0        0
 25 26  1  0        0
 26 27  1  0        0
M  END
>  <CAS RN>
56359

>  <SMILES>
CCCC[Sn](CCCC)(CCCC)O[Sn](CCCC)(CCCC)CCCC

>  <Measured or Estimated Log10(mmol/L)>
-5.407014023

$$$$

CDXL12

 17 16  0  0  0  0  0  0  0  0999 V2000
   -0.6039   -0.5230    0.0000 Sn  0  0  0  0  0  0  0  2  0  0  0  0
    0.1105   -0.9355    0.0000 C   0  0  0  0  0  0  0  2  0  0  0  0
    0.8250   -0.5230    0.0000 C   0  0  0  0  0  0  0  2  0  0  0  0
    1.5395   -0.9355    0.0000 C   0  0  0  0  0  0  0  2  0  0  0  0
    2.2539   -0.5230    0.0000 C   0  0  0  0  0  0  0  2  0  0  0  0
   -1.3184   -0.1105    0.0000 C   0  0  0  0  0  0  0  2  0  0  0  0
   -1.3184    0.7145    0.0000 C   0  0  0  0  0  0  0  2  0  0  0  0
   -2.0329    1.1270    0.0000 C   0  0  0  0  0  0  0  2  0  0  0  0
   -2.0329    1.9520    0.0000 C   0  0  0  0  0  0  0  2  0  0  0  0
   -0.1914    0.1914    0.0000 C   0  0  0  0  0  0  0  2  0  0  0  0
    0.6336    0.1914    0.0000 C   0  0  0  0  0  0  0  2  0  0  0  0
    1.0461    0.9059    0.0000 C   0  0  0  0  0  0  0  2  0  0  0  0
    1.8711    0.9059    0.0000 C   0  0  0  0  0  0  0  2  0  0  0  0
   -1.0164   -1.2375    0.0000 O   0  0  0  0  0  0  0  2  0  0  0  0
   -1.8414   -1.2375    0.0000 C   0  0  0  0  0  0  0  2  0  0  0  0
   -2.2539   -1.9520    0.0000 C   0  0  0  0  0  0  0  2  0  0  0  0
   -2.2539   -0.5230    0.0000 O   0  0  0  0  0  0  0  2  0  0  0  0
  1  2  1  0        0
  2  3  1  0        0
  3  4  1  0        0
  4  5  1  0        0
  1  6  1  0        0
  6  7  1  0        0
  7  8  1  0        0
  8  9  1  0        0
  1 10  1  0        0
 10 11  1  0        0
 11 12  1  0        0
 12 13  1  0        0
  1 14  1  0        0
 14 15  1  0        0
 15 16  1  0        0
 15 17  2  0        0
M  END
>  <CAS RN>
56360

>  <SMILES>
[Sn](CCCC)(CCCC)(CCCC)OC(C)=O

>  <Measured or Estimated Log10(mmol/L)>
-5.024413516

$$$$

CDXL12

 18 18  0  0  0  0  0  0  0  0999 V2000
    2.8579   -0.8250    0.0000 C   0  0  0  0  0  0  0  2  0  0  0  0
    2.1434   -1.2375    0.0000 C   0  0  0  0  0  0  0  2  0  0  0  0
    1.4289   -0.8250    0.0000 O   0  0  0  0  0  0  0  2  0  0  0  0
    0.7145   -1.2375    0.0000 P   0  0  0  0  0  0  0  2  0  0  0  0
    0.7145   -2.0625    0.0000 S   0  0  0  0  0  0  0  2  0  0  0  0
   -0.0000   -0.8250    0.0000 O   0  0  0  0  0  0  0  2  0  0  0  0
   -0.7145   -1.2375    0.0000 C   0  0  0  0  0  0  0  2  0  0  0  0
   -1.4289   -0.8250    0.0000 C   0  0  0  0  0  0  0  2  0  0  0  0
    0.7145   -0.4125    0.0000 O   0  0  0  0  0  0  0  2  0  0  0  0
   -0.0000    0.0000    0.0000 C   0  0  0  0  0  0  0  2  0  0  0  0
   -0.7145   -0.4125    0.0000 C   0  0  0  0  0  0  0  2  0  0  0  0
   -1.4289    0.0000    0.0000 C   0  0  0  0  0  0  0  2  0  0  0  0
   -1.4289    0.8250    0.0000 C   0  0  0  0  0  0  0  2  0  0  0  0
   -0.7145    1.2375    0.0000 C   0  0  0  0  0  0  0  2  0  0  0  0
   -0.0000    0.8250    0.0000 C   0  0  0  0  0  0  0  2  0  0  0  0
   -2.1434    1.2375    0.0000 N   0  0  0  0  0  0  0  2  0  0  0  0
   -2.1434    2.0625    0.0000 O   0  0  0  0  0  0  0  2  0  0  0  0
   -2.8579    0.8250    0.0000 O   0  0  0  0  0  0  0  2  0  0  0  0
  1  2  1  0        0
  2  3  1  0        0
  3  4  1  0        0
  4  5  2  0        0
  4  6  1  0        0
  6  7  1  0        0
  7  8  1  0        0
  4  9  1  0        0
  9 10  1  0        0
 10 11  4  0        0
 11 12  4  0        0
 12 13  4  0        0
 13 14  4  0        0
 14 15  4  0        0
 10 15  4  0        0
 13 16  1  0        0
 16 17  2  0        0
 16 18  2  0        0
M  END
>  <CAS RN>
56382

>  <SMILES>
CCOP(=S)(OCC)Oc1ccc(cc1)N(=O)=O

>  <Measured or Estimated Log10(mmol/L)>
-5.176930055

$$$$

CDXL12

 20 21  0  0  0  0  0  0  0  0999 V2000
   -0.3572   -0.2062    0.0000 C   0  0  0  0  0  0  0  2  0  0  0  0
   -1.0717    0.2062    0.0000 C   0  0  0  0  0  0  0  2  0  0  0  0
   -1.7862   -0.2062    0.0000 C   0  0  0  0  0  0  0  2  0  0  0  0
   -0.3572   -1.0313    0.0000 C   0  0  0  0  0  0  0  2  0  0  0  0
    0.3572   -1.4438    0.0000 C   0  0  0  0  0  0  0  2  0  0  0  0
    0.3572   -2.2687    0.0000 C   0  0  0  0  0  0  0  2  0  0  0  0
   -0.3572   -2.6812    0.0000 C   0  0  0  0  0  0  0  2  0  0  0  0
   -0.3572   -3.5063    0.0000 O   0  0  0  0  0  0  0  2  0  0  0  0
   -1.0717   -2.2687    0.0000 C   0  0  0  0  0  0  0  2  0  0  0  0
   -1.0717   -1.4438    0.0000 C   0  0  0  0  0  0  0  2  0  0  0  0
    0.3572    0.2062    0.0000 C   0  0  0  0  0  0  0  2  0  0  0  0
    1.0717   -0.2062    0.0000 C   0  0  0  0  0  0  0  2  0  0  0  0
    1.7862    0.2062    0.0000 C   0  0  0  0  0  0  0  2  0  0  0  0
    0.3572    1.0313    0.0000 C   0  0  0  0  0  0  0  2  0  0  0  0
   -0.3572    1.4437    0.0000 C   0  0  0  0  0  0  0  2  0  0  0  0
   -0.3572    2.2687    0.0000 C   0  0  0  0  0  0  0  2  0  0  0  0
    0.3572    2.6812    0.0000 C   0  0  0  0  0  0  0  2  0  0  0  0
    0.3572    3.5063    0.0000 O   0  0  0  0  0  0  0  2  0  0  0  0
    1.0717    2.2687    0.0000 C   0  0  0  0  0  0  0  2  0  0  0  0
    1.0717    1.4438    0.0000 C   0  0  0  0  0  0  0  2  0  0  0  0
  1  2  1  0        0
  2  3  1  0        0
  1  4  1  0        0
  4  5  4  0        0
  5  6  4  0        0
  6  7  4  0        0
  7  8  1  0        0
  7  9  4  0        0
  9 10  4  0        0
  4 10  4  0        0
  1 11  2  0        0
 11 12  1  0        0
 12 13  1  0        0
 11 14  1  0        0
 14 15  4  0        0
 15 16  4  0        0
 16 17  4  0        0
 17 18  1  0        0
 17 19  4  0        0
 19 20  4  0        0
 14 20  4  0        0
M  END
>  <CAS RN>
56531

>  <SMILES>
C(CC)(c1ccc(O)cc1)=C(CC)c1ccc(O)cc1

>  <Measured or Estimated Log10(mmol/L)>
-2.391284812

$$$$

CDXL12

 22 23  0  0  0  0  0  0  0  0999 V2000
   -1.0717    2.0625    0.0000 S   0  0  0  0  0  0  0  2  0  0  0  0
   -1.0717    1.2375    0.0000 P   0  0  0  0  0  0  0  2  0  0  0  0
   -1.7862    0.8250    0.0000 O   0  0  0  0  0  0  0  2  0  0  0  0
   -2.5006    1.2375    0.0000 C   0  0  0  0  0  0  0  2  0  0  0  0
   -3.2151    0.8250    0.0000 C   0  0  0  0  0  0  0  2  0  0  0  0
   -0.3572    0.8250    0.0000 O   0  0  0  0  0  0  0  2  0  0  0  0
    0.3572    1.2375    0.0000 C   0  0  0  0  0  0  0  2  0  0  0  0
    1.0717    0.8250    0.0000 C   0  0  0  0  0  0  0  2  0  0  0  0
   -1.0717    0.4125    0.0000 O   0  0  0  0  0  0  0  2  0  0  0  0
   -0.3572    0.0000    0.0000 C   0  0  0  0  0  0  0  2  0  0  0  0
   -0.3572   -0.8250    0.0000 C   0  0  0  0  0  0  0  2  0  0  0  0
    0.3572   -1.2375    0.0000 C   0  0  0  0  0  0  0  2  0  0  0  0
    1.0717   -0.8250    0.0000 C   0  0  0  0  0  0  0  2  0  0  0  0
    1.7862   -1.2375    0.0000 C   0  0  0  0  0  0  0  2  0  0  0  0
    1.7862   -2.0625    0.0000 C   0  0  0  0  0  0  0  2  0  0  0  0
    2.5006   -0.8250    0.0000 C   0  0  0  0  0  0  0  2  0  0  0  0
    3.2151   -1.2375    0.0000 Cl  0  0  0  0  0  0  0  2  0  0  0  0
    2.5006    0.0000    0.0000 C   0  0  0  0  0  0  0  2  0  0  0  0
    3.2151    0.4125    0.0000 O   0  0  0  0  0  0  0  2  0  0  0  0
    1.7862    0.4125    0.0000 O   0  0  0  0  0  0  0  2  0  0  0  0
    1.0717    0.0000    0.0000 C   0  0  0  0  0  0  0  2  0  0  0  0
    0.3572    0.4125    0.0000 C   0  0  0  0  0  0  0  2  0  0  0  0
  1  2  2  0        0
  2  3  1  0        0
  3  4  1  0        0
  4  5  1  0        0
  2  6  1  0        0
  6  7  1  0        0
  7  8  1  0        0
  2  9  1  0        0
  9 10  1  0        0
 10 11  4  0        0
 11 12  4  0        0
 12 13  4  0        0
 13 14  1  0        0
 14 15  1  0        0
 14 16  2  0        0
 16 17  1  0        0
 16 18  1  0        0
 18 19  2  0        0
 18 20  1  0        0
 20 21  1  0        0
 13 21  4  0        0
 21 22  4  0        0
 10 22  4  0        0
M  END
>  <CAS RN>
56724

>  <SMILES>
S=P(OCC)(OCC)Oc1ccc2/C(/C)=C(/Cl)\C(=O)Oc2c1

>  <Measured or Estimated Log10(mmol/L)>
-7.092809099

$$$$

CDXL12

 21 20  0  0  0  0  0  0  0  0999 V2000
   -6.1232   -0.0399    0.0000 C   0  0  0  0  0  0  0  2  0  0  0  0
   -5.4087    0.3726    0.0000 C   0  0  0  0  0  0  0  2  0  0  0  0
   -4.6942   -0.0399    0.0000 C   0  0  0  0  0  0  0  2  0  0  0  0
   -3.9798    0.3726    0.0000 C   0  0  0  0  0  0  0  2  0  0  0  0
   -3.2653   -0.0399    0.0000 C   0  0  0  0  0  0  0  2  0  0  0  0
   -2.5508    0.3726    0.0000 C   0  0  0  0  0  0  0  2  0  0  0  0
   -1.8364   -0.0399    0.0000 C   0  0  0  0  0  0  0  2  0  0  0  0
   -1.1219    0.3726    0.0000 C   0  0  0  0  0  0  0  2  0  0  0  0
   -0.4074   -0.0399    0.0000 C   0  0  0  0  0  0  0  2  0  0  0  0
    0.3070    0.3726    0.0000 C   0  0  0  0  0  0  0  2  0  0  0  0
    1.0215   -0.0399    0.0000 C   0  0  0  0  0  0  0  2  0  0  0  0
    1.7360    0.3726    0.0000 C   0  0  0  0  0  0  0  2  0  0  0  0
    2.4505   -0.0399    0.0000 C   0  0  0  0  0  0  0  2  0  0  0  0
    3.1649    0.3726    0.0000 C   0  0  0  0  0  0  0  2  0  0  0  0
    3.8794   -0.0399    0.0000 C   0  0  0  0  0  0  0  2  0  0  0  0
    4.5939    0.3726    0.0000 C   0  0  0  0  0  0  0  2  0  0  0  0
    5.3083   -0.0399    0.0000 N   0  0  0  0  0  0  0  2  0  0  0  0
    4.7250   -0.6232    0.0000 Br  0  0  0  0  0  0  0  2  0  0  0  0
    5.6829   -0.7750    0.0000 C   0  0  0  0  0  0  0  2  0  0  0  0
    6.1232    0.0892    0.0000 C   0  0  0  0  0  0  0  2  0  0  0  0
    5.4374    0.7750    0.0000 C   0  0  0  0  0  0  0  2  0  0  0  0
  1  2  1  0        0
  2  3  1  0        0
  3  4  1  0        0
  4  5  1  0        0
  5  6  1  0        0
  6  7  1  0        0
  7  8  1  0        0
  8  9  1  0        0
  9 10  1  0        0
 10 11  1  0        0
 11 12  1  0        0
 12 13  1  0        0
 13 14  1  0        0
 14 15  1  0        0
 15 16  1  0        0
 16 17  1  0        0
 17 18  1  0        0
 17 19  1  0        0
 17 20  1  0        0
 17 21  1  0        0
M  END
>  <CAS RN>
57090

>  <SMILES>
CCCCCCCCCCCCCCCCN(Br)(C)(C)C

>  <Measured or Estimated Log10(mmol/L)>
-4.129347

$$$$

CDXL12

 18 20  0  0  0  0  0  0  0  0999 V2000
    2.1190    0.0000    0.0000 Cl  0  0  0  0  0  0  0  2  0  0  0  0
    1.2940    0.0000    0.0000 C   0  0  0  0  0  0  0  2  0  0  0  0
    0.8091   -0.6674    0.0000 C   0  0  0  0  0  0  0  2  0  0  0  0
    0.0244   -0.4125    0.0000 C   0  0  0  0  0  0  0  2  0  0  0  0
    0.0244    0.4125    0.0000 C   0  0  0  0  0  0  0  2  0  0  0  0
    0.8091    0.6674    0.0000 C   0  0  0  0  0  0  0  2  0  0  0  0
    1.0640    1.4521    0.0000 Cl  0  0  0  0  0  0  0  2  0  0  0  0
   -0.6900    0.8250    0.0000 C   0  0  0  0  0  0  0  2  0  0  0  0
   -0.6900    1.6500    0.0000 Cl  0  0  0  0  0  0  0  2  0  0  0  0
   -1.4045    0.4125    0.0000 C   0  0  0  0  0  0  0  2  0  0  0  0
   -1.4045   -0.4125    0.0000 C   0  0  0  0  0  0  0  2  0  0  0  0
   -2.1190   -0.8250    0.0000 Cl  0  0  0  0  0  0  0  2  0  0  0  0
   -0.6900   -0.8250    0.0000 C   0  0  0  0  0  0  0  2  0  0  0  0
   -0.6900   -1.6500    0.0000 Cl  0  0  0  0  0  0  0  2  0  0  0  0
   -1.0266    0.0000    0.0000 C   0  0  0  0  0  0  0  2  0  0  0  0
   -1.7410    0.4125    0.0000 Cl  0  0  0  0  0  0  0  2  0  0  0  0
   -1.7410   -0.4125    0.0000 Cl  0  0  0  0  0  0  0  2  0  0  0  0
   -2.1190    0.8250    0.0000 Cl  0  0  0  0  0  0  0  2  0  0  0  0
  1  2  1  0        0
  2  3  1  0        0
  3  4  1  0        0
  4  5  1  0        0
  5  6  1  0        0
  2  6  1  0        0
  6  7  1  0        0
  5  8  1  0        0
  8  9  1  0        0
  8 10  1  0        0
 10 11  2  0        0
 11 12  1  0        0
 11 13  1  0        0
  4 13  1  0        0
 13 14  1  0        0
 13 15  1  0        0
  8 15  1  0        0
 15 16  1  0        0
 15 17  1  0        0
 10 18  1  0        0
M  END
>  <CAS RN>
57749

>  <SMILES>
ClC1CC2C(C1Cl)C1(Cl)\C(=C(\Cl)/C2(Cl)C1(Cl)Cl)\Cl

>  <Measured or Estimated Log10(mmol/L)>
-3.619557779

$$$$

CDXL12

 17 18  0  0  0  0  0  0  0  0999 V2000
    0.3572   -1.4438    0.0000 C   0  0  0  0  0  0  0  2  0  0  0  0
    1.0717   -1.0313    0.0000 C   0  0  0  0  0  0  0  2  0  0  0  0
   -0.3572   -1.0313    0.0000 C   0  0  0  0  0  0  0  2  0  0  0  0
   -1.0717   -1.4437    0.0000 N   0  0  0  0  0  0  0  2  0  0  0  0
   -1.7862   -1.0313    0.0000 C   0  0  0  0  0  0  0  2  0  0  0  0
   -2.5006   -1.4437    0.0000 N   0  0  0  0  0  0  0  2  0  0  0  0
   -1.7862   -0.2062    0.0000 N   0  0  0  0  0  0  0  2  0  0  0  0
   -1.0717    0.2062    0.0000 C   0  0  0  0  0  0  0  2  0  0  0  0
   -1.0717    1.0313    0.0000 N   0  0  0  0  0  0  0  2  0  0  0  0
   -0.3572   -0.2062    0.0000 C   0  0  0  0  0  0  0  2  0  0  0  0
    0.3572    0.2062    0.0000 C   0  0  0  0  0  0  0  2  0  0  0  0
    0.3572    1.0313    0.0000 C   0  0  0  0  0  0  0  2  0  0  0  0
    1.0717    1.4438    0.0000 C   0  0  0  0  0  0  0  2  0  0  0  0
    1.7862    1.0313    0.0000 C   0  0  0  0  0  0  0  2  0  0  0  0
    2.5006    1.4438    0.0000 Cl  0  0  0  0  0  0  0  2  0  0  0  0
    1.7862    0.2062    0.0000 C   0  0  0  0  0  0  0  2  0  0  0  0
    1.0717   -0.2062    0.0000 C   0  0  0  0  0  0  0  2  0  0  0  0
  1  2  1  0        0
  1  3  1  0        0
  3  4  4  0        0
  4  5  4  0        0
  5  6  1  0        0
  5  7  4  0        0
  7  8  4  0        0
  8  9  1  0        0
  8 10  4  0        0
  3 10  4  0        0
 10 11  1  0        0
 11 12  4  0        0
 12 13  4  0        0
 13 14  4  0        0
 14 15  1  0        0
 14 16  4  0        0
 16 17  4  0        0
 11 17  4  0        0
M  END
>  <CAS RN>
58140

>  <SMILES>
C(C)c1nc(N)nc(N)c1c1ccc(Cl)cc1

>  <Measured or Estimated Log10(mmol/L)>
-1.632277477

$$$$

CDXL12

 13 14  0  0  0  0  0  0  0  0999 V2000
   -1.7862   -0.4125    0.0000 C   0  0  0  0  0  0  0  2  0  0  0  0
   -1.0717   -0.8250    0.0000 C   0  0  0  0  0  0  0  2  0  0  0  0
   -0.3572   -0.4125    0.0000 C   0  0  0  0  0  0  0  2  0  0  0  0
    0.3572   -0.8250    0.0000 C   0  0  0  0  0  0  0  2  0  0  0  0
    0.3572   -1.6500    0.0000 O   0  0  0  0  0  0  0  2  0  0  0  0
    1.0717   -0.4125    0.0000 C   0  0  0  0  0  0  0  2  0  0  0  0
    1.0717    0.4125    0.0000 C   0  0  0  0  0  0  0  2  0  0  0  0
    1.7862    0.8250    0.0000 C   0  0  0  0  0  0  0  2  0  0  0  0
    0.3572    0.8250    0.0000 C   0  0  0  0  0  0  0  2  0  0  0  0
    0.3572    1.6500    0.0000 O   0  0  0  0  0  0  0  2  0  0  0  0
   -0.3572    0.4125    0.0000 C   0  0  0  0  0  0  0  2  0  0  0  0
   -1.0717    0.8250    0.0000 C   0  0  0  0  0  0  0  2  0  0  0  0
   -1.7862    0.4125    0.0000 C   0  0  0  0  0  0  0  2  0  0  0  0
  1  2  4  0        0
  2  3  4  0        0
  3  4  1  0        0
  4  5  2  0        0
  4  6  1  0        0
  6  7  2  0        0
  7  8  1  0        0
  7  9  1  0        0
  9 10  2  0        0
  9 11  1  0        0
  3 11  4  0        0
 11 12  4  0        0
 12 13  4  0        0
  1 13  4  0        0
M  END
>  <CAS RN>
58275

>  <SMILES>
c1cc2C(=O)/C=C(/C)\C(=O)c2cc1

>  <Measured or Estimated Log10(mmol/L)>
-2.544643506

$$$$

CDXL12

 12 12  0  0  0  0  0  0  0  0999 V2000
    0.7145   -0.4125    0.0000 C   0  0  0  0  0  0  0  2  0  0  0  0
    0.0000   -0.8250    0.0000 C   0  0  0  0  0  0  0  2  0  0  0  0
   -0.7145   -0.4125    0.0000 C   0  0  0  0  0  0  0  2  0  0  0  0
   -0.7145    0.4125    0.0000 C   0  0  0  0  0  0  0  2  0  0  0  0
    0.0000    0.8250    0.0000 C   0  0  0  0  0  0  0  2  0  0  0  0
    0.0000    1.6500    0.0000 Cl  0  0  0  0  0  0  0  2  0  0  0  0
    0.7145    0.4125    0.0000 C   0  0  0  0  0  0  0  2  0  0  0  0
    1.4289    0.8250    0.0000 Cl  0  0  0  0  0  0  0  2  0  0  0  0
   -1.4289    0.8250    0.0000 Cl  0  0  0  0  0  0  0  2  0  0  0  0
   -1.4289   -0.8250    0.0000 Cl  0  0  0  0  0  0  0  2  0  0  0  0
    0.0000   -1.6500    0.0000 Cl  0  0  0  0  0  0  0  2  0  0  0  0
    1.4289   -0.8250    0.0000 Cl  0  0  0  0  0  0  0  2  0  0  0  0
  1  2  1  0        0
  2  3  1  0        0
  3  4  1  0        0
  4  5  1  0        0
  5  6  1  0        0
  5  7  1  0        0
  1  7  1  0        0
  7  8  1  0        0
  4  9  1  0        0
  3 10  1  0        0
  2 11  1  0        0
  1 12  1  0        0
M  END
>  <CAS RN>
58899

>  <SMILES>
C1(C(C(C(C(Cl)C1Cl)Cl)Cl)Cl)Cl

>  <Measured or Estimated Log10(mmol/L)>
-2.388095228

$$$$

CDXL12

 11 11  0  0  0  0  0  0  0  0999 V2000
    1.4289    0.4125    0.0000 O   0  0  0  0  0  0  0  2  0  0  0  0
    0.7145    0.0000    0.0000 C   0  0  0  0  0  0  0  2  0  0  0  0
    0.7145   -0.8250    0.0000 C   0  0  0  0  0  0  0  2  0  0  0  0
    0.0000   -1.2375    0.0000 C   0  0  0  0  0  0  0  2  0  0  0  0
   -0.7145   -0.8250    0.0000 C   0  0  0  0  0  0  0  2  0  0  0  0
   -0.7145    0.0000    0.0000 C   0  0  0  0  0  0  0  2  0  0  0  0
   -1.4289    0.4125    0.0000 Cl  0  0  0  0  0  0  0  2  0  0  0  0
    0.0000    0.4125    0.0000 C   0  0  0  0  0  0  0  2  0  0  0  0
    0.0000    1.2375    0.0000 Cl  0  0  0  0  0  0  0  2  0  0  0  0
   -1.4289   -1.2375    0.0000 Cl  0  0  0  0  0  0  0  2  0  0  0  0
    1.4289   -1.2375    0.0000 Cl  0  0  0  0  0  0  0  2  0  0  0  0
  1  2  1  0        0
  2  3  4  0        0
  3  4  4  0        0
  4  5  4  0        0
  5  6  4  0        0
  6  7  1  0        0
  6  8  4  0        0
  2  8  4  0        0
  8  9  1  0        0
  5 10  1  0        0
  3 11  1  0        0
M  END
>  <CAS RN>
58902

>  <SMILES>
Oc1c(cc(c(Cl)c1Cl)Cl)Cl

>  <Measured or Estimated Log10(mmol/L)>
-2.902889641

$$$$

CDXL12

 17 17  0  0  0  0  0  0  0  0999 V2000
   -2.1434    0.0000    0.0000 O   0  0  0  0  0  0  0  2  0  0  0  0
   -2.1434   -0.8250    0.0000 C   0  0  0  0  0  0  0  2  0  0  0  0
   -1.4289   -1.2375    0.0000 N   0  0  0  0  0  0  0  2  0  0  0  0
   -0.7145   -0.8250    0.0000 C   0  0  0  0  0  0  0  2  0  0  0  0
   -0.0000   -1.2375    0.0000 C   0  0  0  0  0  0  0  2  0  0  0  0
    0.7145   -0.8250    0.0000 C   0  0  0  0  0  0  0  2  0  0  0  0
    1.4289   -1.2375    0.0000 O   0  0  0  0  0  0  0  2  0  0  0  0
    2.1434   -0.8250    0.0000 C   0  0  0  0  0  0  0  2  0  0  0  0
    2.8579   -1.2375    0.0000 C   0  0  0  0  0  0  0  2  0  0  0  0
    0.7145    0.0000    0.0000 C   0  0  0  0  0  0  0  2  0  0  0  0
   -0.0000    0.4125    0.0000 C   0  0  0  0  0  0  0  2  0  0  0  0
   -0.7145    0.0000    0.0000 C   0  0  0  0  0  0  0  2  0  0  0  0
    1.4289    0.4125    0.0000 C   0  0  0  0  0  0  0  2  0  0  0  0
    1.4289    1.2375    0.0000 O   0  0  0  0  0  0  0  2  0  0  0  0
    2.1434    0.0000    0.0000 O   0  0  0  0  0  0  0  2  0  0  0  0
    2.8579    0.4125    0.0000 C   0  0  0  0  0  0  0  2  0  0  0  0
   -2.8579   -1.2375    0.0000 C   0  0  0  0  0  0  0  2  0  0  0  0
  1  2  2  0        0
  2  3  1  0        0
  3  4  1  0        0
  4  5  4  0        0
  5  6  4  0        0
  6  7  1  0        0
  7  8  1  0        0
  8  9  1  0        0
  6 10  4  0        0
 10 11  4  0        0
 11 12  4  0        0
  4 12  4  0        0
 10 13  1  0        0
 13 14  2  0        0
 13 15  1  0        0
 15 16  1  0        0
  2 17  1  0        0
M  END
>  <CAS RN>
59063

>  <SMILES>
O=C(Nc1cc(OCC)c(cc1)C(=O)OC)C

>  <Measured or Estimated Log10(mmol/L)>
-0.074185378

$$$$

CDXL12

  9  9  0  0  0  0  0  0  0  0999 V2000
   -1.4289   -0.8250    0.0000 O   0  0  0  0  0  0  0  2  0  0  0  0
   -0.7145   -0.4125    0.0000 C   0  0  0  0  0  0  0  2  0  0  0  0
   -0.7145    0.4125    0.0000 C   0  0  0  0  0  0  0  2  0  0  0  0
    0.0000    0.8250    0.0000 C   0  0  0  0  0  0  0  2  0  0  0  0
    0.7145    0.4125    0.0000 C   0  0  0  0  0  0  0  2  0  0  0  0
    0.7145   -0.4125    0.0000 C   0  0  0  0  0  0  0  2  0  0  0  0
    1.4289   -0.8250    0.0000 C   0  0  0  0  0  0  0  2  0  0  0  0
    0.0000   -0.8250    0.0000 C   0  0  0  0  0  0  0  2  0  0  0  0
    1.4289    0.8250    0.0000 Cl  0  0  0  0  0  0  0  2  0  0  0  0
  1  2  1  0        0
  2  3  4  0        0
  3  4  4  0        0
  4  5  4  0        0
  5  6  4  0        0
  6  7  1  0        0
  6  8  4  0        0
  2  8  4  0        0
  5  9  1  0        0
M  END
>  <CAS RN>
59507

>  <SMILES>
Oc1ccc(c(C)c1)Cl

>  <Measured or Estimated Log10(mmol/L)>
-1.853043844

$$$$

CDXL12

 14 14  0  0  0  0  0  0  0  0999 V2000
    2.3773    0.6102    0.0000 O   0  0  0  0  0  0  0  2  0  0  0  0
    2.3773   -0.2148    0.0000 C   0  0  0  0  0  0  0  2  0  0  0  0
    3.0917   -0.6273    0.0000 N   0  0  0  0  0  0  0  2  0  0  0  0
    1.6628   -0.6273    0.0000 N   0  0  0  0  0  0  0  2  0  0  0  0
    0.9483   -0.2148    0.0000 N   0  0  0  0  0  0  0  2  0  0  0  0
    0.2338   -0.6273    0.0000 C   0  0  0  0  0  0  0  2  0  0  0  0
   -0.4806   -0.2148    0.0000 C   0  0  0  0  0  0  0  2  0  0  0  0
   -1.2343   -0.5504    0.0000 O   0  0  0  0  0  0  0  2  0  0  0  0
   -1.7863    0.0627    0.0000 C   0  0  0  0  0  0  0  2  0  0  0  0
   -2.6068   -0.0235    0.0000 N   0  0  0  0  0  0  0  2  0  0  0  0
   -2.9424   -0.7772    0.0000 O   0  0  0  0  0  0  0  2  0  0  0  0
   -3.0917    0.6439    0.0000 O   0  0  0  0  0  0  0  2  0  0  0  0
   -1.3738    0.7772    0.0000 C   0  0  0  0  0  0  0  2  0  0  0  0
   -0.5669    0.6057    0.0000 C   0  0  0  0  0  0  0  2  0  0  0  0
  1  2  2  0        0
  2  3  1  0        0
  2  4  1  0        0
  4  5  1  0        0
  5  6  2  0        0
  6  7  1  0        0
  7  8  4  0        0
  8  9  4  0        0
  9 10  1  0        0
 10 11  2  0        0
 10 12  2  0        0
  9 13  4  0        0
 13 14  4  0        0
  7 14  4  0        0
M  END
>  <CAS RN>
59870

>  <SMILES>
O=C(N)NN=Cc1oc(N(=O)=O)cc1

>  <Measured or Estimated Log10(mmol/L)>
-0.839085869

$$$$

CDXL12

 20 19  0  0  0  0  0  0  0  0999 V2000
   -2.5006   -1.0312    0.0000 O   0  0  0  0  0  0  0  2  0  0  0  0
   -2.5006   -0.2062    0.0000 C   0  0  0  0  0  0  0  2  0  0  0  0
   -3.2151    0.2062    0.0000 O   0  0  0  0  0  0  0  2  0  0  0  0
   -1.7862    0.2062    0.0000 C   0  0  0  0  0  0  0  2  0  0  0  0
   -1.0717   -0.2062    0.0000 N   0  0  0  0  0  0  0  2  0  0  0  0
   -0.3572    0.2063    0.0000 C   0  0  0  0  0  0  0  2  0  0  0  0
    0.3572   -0.2062    0.0000 C   0  0  0  0  0  0  0  2  0  0  0  0
    1.0717    0.2062    0.0000 N   0  0  0  0  0  0  0  2  0  0  0  0
    1.7862   -0.2062    0.0000 C   0  0  0  0  0  0  0  2  0  0  0  0
    2.5006    0.2062    0.0000 C   0  0  0  0  0  0  0  2  0  0  0  0
    2.5006    1.0312    0.0000 O   0  0  0  0  0  0  0  2  0  0  0  0
    3.2151   -0.2062    0.0000 O   0  0  0  0  0  0  0  2  0  0  0  0
    1.0717    1.0312    0.0000 C   0  0  0  0  0  0  0  2  0  0  0  0
    0.3572    1.4437    0.0000 C   0  0  0  0  0  0  0  2  0  0  0  0
    0.3572    2.2687    0.0000 O   0  0  0  0  0  0  0  2  0  0  0  0
   -0.3572    1.0312    0.0000 O   0  0  0  0  0  0  0  2  0  0  0  0
   -1.0717   -1.0312    0.0000 C   0  0  0  0  0  0  0  2  0  0  0  0
   -0.3572   -1.4437    0.0000 C   0  0  0  0  0  0  0  2  0  0  0  0
   -0.3572   -2.2687    0.0000 O   0  0  0  0  0  0  0  2  0  0  0  0
    0.3572   -1.0312    0.0000 O   0  0  0  0  0  0  0  2  0  0  0  0
  1  2  2  0        0
  2  3  1  0        0
  2  4  1  0        0
  4  5  1  0        0
  5  6  1  0        0
  6  7  1  0        0
  7  8  1  0        0
  8  9  1  0        0
  9 10  1  0        0
 10 11  2  0        0
 10 12  1  0        0
  8 13  1  0        0
 13 14  1  0        0
 14 15  2  0        0
 14 16  1  0        0
  5 17  1  0        0
 17 18  1  0        0
 18 19  2  0        0
 18 20  1  0        0
M  END
>  <CAS RN>
60004

>  <SMILES>
O=C(O)CN(CCN(CC(=O)O)CC(=O)O)CC(=O)O

>  <Measured or Estimated Log10(mmol/L)>
0.0469823

$$$$

CDXL12

 12 11  0  0  0  0  0  0  0  0999 V2000
    1.0717   -1.0312    0.0000 O   0  0  0  0  0  0  0  2  0  0  0  0
    1.0717   -0.2062    0.0000 C   0  0  0  0  0  0  0  2  0  0  0  0
    1.7862    0.2062    0.0000 N   0  0  0  0  0  0  0  2  0  0  0  0
    2.5006   -0.2062    0.0000 C   0  0  0  0  0  0  0  2  0  0  0  0
    0.3572    0.2062    0.0000 C   0  0  0  0  0  0  0  2  0  0  0  0
   -0.3572   -0.2062    0.0000 S   0  0  0  0  0  0  0  2  0  0  0  0
   -1.0717    0.2063    0.0000 P   0  0  0  0  0  0  0  2  0  0  0  0
   -1.7862   -0.2062    0.0000 O   0  0  0  0  0  0  0  2  0  0  0  0
   -2.5006    0.2062    0.0000 C   0  0  0  0  0  0  0  2  0  0  0  0
   -1.0717   -0.6187    0.0000 O   0  0  0  0  0  0  0  2  0  0  0  0
   -1.7862   -1.0312    0.0000 C   0  0  0  0  0  0  0  2  0  0  0  0
   -1.0717    1.0312    0.0000 S   0  0  0  0  0  0  0  2  0  0  0  0
  1  2  2  0        0
  2  3  1  0        0
  3  4  1  0        0
  2  5  1  0        0
  5  6  1  0        0
  6  7  1  0        0
  7  8  1  0        0
  8  9  1  0        0
  7 10  1  0        0
 10 11  1  0        0
  7 12  2  0        0
M  END
>  <CAS RN>
60515

>  <SMILES>
O=C(NC)CSP(OC)(OC)=S

>  <Measured or Estimated Log10(mmol/L)>
-2.059292609

$$$$

CDXL12

 19 23  0  0  0  0  0  0  0  0999 V2000
   -2.1434   -0.8250    0.0000 Cl  0  0  0  0  0  0  0  2  0  0  0  0
   -1.4289   -0.4125    0.0000 C   0  0  0  0  0  0  0  2  0  0  0  0
   -1.4289    0.4125    0.0000 C   0  0  0  0  0  0  0  2  0  0  0  0
   -2.1434    0.8250    0.0000 Cl  0  0  0  0  0  0  0  2  0  0  0  0
   -0.7145    0.8250    0.0000 C   0  0  0  0  0  0  0  2  0  0  0  0
   -0.7145    1.6500    0.0000 Cl  0  0  0  0  0  0  0  2  0  0  0  0
    0.0000    0.4125    0.0000 C   0  0  0  0  0  0  0  2  0  0  0  0
    0.7145    0.8250    0.0000 C   0  0  0  0  0  0  0  2  0  0  0  0
    1.2098   -0.0000    0.0000 C   0  0  0  0  0  0  0  2  0  0  0  0
    0.7145   -0.8250    0.0000 C   0  0  0  0  0  0  0  2  0  0  0  0
    1.4289   -0.4125    0.0000 C   0  0  0  0  0  0  0  2  0  0  0  0
    2.1434   -0.0000    0.0000 O   0  0  0  0  0  0  0  2  0  0  0  0
    1.4289    0.4125    0.0000 C   0  0  0  0  0  0  0  2  0  0  0  0
    0.0000   -0.4125    0.0000 C   0  0  0  0  0  0  0  2  0  0  0  0
   -0.7145   -0.8250    0.0000 C   0  0  0  0  0  0  0  2  0  0  0  0
   -0.7145   -1.6500    0.0000 Cl  0  0  0  0  0  0  0  2  0  0  0  0
   -1.0510   -0.0000    0.0000 C   0  0  0  0  0  0  0  2  0  0  0  0
   -1.7655    0.4125    0.0000 Cl  0  0  0  0  0  0  0  2  0  0  0  0
   -1.7655   -0.4125    0.0000 Cl  0  0  0  0  0  0  0  2  0  0  0  0
  1  2  1  0        0
  2  3  2  0        0
  3  4  1  0        0
  3  5  1  0        0
  5  6  1  0        0
  5  7  1  0        0
  7  8  1  0        0
  8  9  1  0        0
  9 10  1  0        0
 10 11  1  0        0
 11 12  1  0        0
 12 13  1  0        0
  8 13  1  0        0
 11 13  1  0        0
 10 14  1  0        0
  7 14  1  0        0
 14 15  1  0        0
  2 15  1  0        0
 15 16  1  0        0
 15 17  1  0        0
  5 17  1  0        0
 17 18  1  0        0
 17 19  1  0        0
M  END
>  <CAS RN>
60571

>  <SMILES>
Cl\C\1=C(/Cl)\C2(Cl)C3C4CC(C5OC45)C3C1(Cl)C2(Cl)Cl

>  <Measured or Estimated Log10(mmol/L)>
-3.105052056

$$$$

CDXL12

  6  6  0  0  0  0  0  0  0  0999 V2000
   -1.0597    0.1498    0.0000 N   0  0  0  0  0  0  0  2  0  0  0  0
   -0.3923    0.6348    0.0000 N   0  0  0  0  0  0  0  2  0  0  0  0
    0.2751    0.1498    0.0000 C   0  0  0  0  0  0  0  2  0  0  0  0
    1.0597    0.4048    0.0000 N   0  0  0  0  0  0  0  2  0  0  0  0
    0.0202   -0.6348    0.0000 N   0  0  0  0  0  0  0  2  0  0  0  0
   -0.8048   -0.6348    0.0000 C   0  0  0  0  0  0  0  2  0  0  0  0
  1  2  4  0        0
  2  3  4  0        0
  3  4  1  0        0
  3  5  4  0        0
  5  6  4  0        0
  1  6  4  0        0
M  END
>  <CAS RN>
61825

>  <SMILES>
n1nc(N)[nH]c1

>  <Measured or Estimated Log10(mmol/L)>
-0.45

$$$$

CDXL12

  7  7  0  0  0  0  0  0  0  0999 V2000
    1.0717    0.8250    0.0000 N   0  0  0  0  0  0  0  2  0  0  0  0
    0.3572    0.4125    0.0000 C   0  0  0  0  0  0  0  2  0  0  0  0
    0.3572   -0.4125    0.0000 C   0  0  0  0  0  0  0  2  0  0  0  0
   -0.3572   -0.8250    0.0000 C   0  0  0  0  0  0  0  2  0  0  0  0
   -1.0717   -0.4125    0.0000 C   0  0  0  0  0  0  0  2  0  0  0  0
   -1.0717    0.4125    0.0000 C   0  0  0  0  0  0  0  2  0  0  0  0
   -0.3572    0.8250    0.0000 C   0  0  0  0  0  0  0  2  0  0  0  0
  1  2  1  0        0
  2  3  4  0        0
  3  4  4  0        0
  4  5  4  0        0
  5  6  4  0        0
  6  7  4  0        0
  2  7  4  0        0
M  END
>  <CAS RN>
62533

>  <SMILES>
Nc1ccccc1

>  <Measured or Estimated Log10(mmol/L)>
-2.506734044

$$$$

CDXL12

  4  3  0  0  0  0  0  0  0  0999 V2000
    0.7145   -0.6188    0.0000 N   0  0  0  0  0  0  0  2  0  0  0  0
    0.0000   -0.2062    0.0000 C   0  0  0  0  0  0  0  2  0  0  0  0
    0.0000    0.6188    0.0000 S   0  0  0  0  0  0  0  2  0  0  0  0
   -0.7145   -0.6187    0.0000 C   0  0  0  0  0  0  0  2  0  0  0  0
  1  2  1  0        0
  2  3  2  0        0
  2  4  1  0        0
M  END
>  <CAS RN>
62555

>  <SMILES>
NC(=S)C

>  <Measured or Estimated Log10(mmol/L)>
-0.635281482

$$$$

CDXL12

  4  3  0  0  0  0  0  0  0  0999 V2000
   -0.7145   -0.6187    0.0000 N   0  0  0  0  0  0  0  2  0  0  0  0
    0.0000   -0.2062    0.0000 C   0  0  0  0  0  0  0  2  0  0  0  0
    0.0000    0.6188    0.0000 S   0  0  0  0  0  0  0  2  0  0  0  0
    0.7145   -0.6188    0.0000 N   0  0  0  0  0  0  0  2  0  0  0  0
  1  2  1  0        0
  2  3  2  0        0
  2  4  1  0        0
M  END
>  <CAS RN>
62566

>  <SMILES>
NC(=S)N

>  <Measured or Estimated Log10(mmol/L)>
-0.927261976

$$$$

CDXL12

 11 10  0  0  0  0  0  0  0  0999 V2000
    0.7145    1.0313    0.0000 O   0  0  0  0  0  0  0  2  0  0  0  0
    0.7145    0.2062    0.0000 P   0  0  0  0  0  0  0  2  0  0  0  0
    1.4289   -0.2062    0.0000 O   0  0  0  0  0  0  0  2  0  0  0  0
    2.1434    0.2062    0.0000 C   0  0  0  0  0  0  0  2  0  0  0  0
    0.7145   -0.6188    0.0000 O   0  0  0  0  0  0  0  2  0  0  0  0
    1.4289   -1.0313    0.0000 C   0  0  0  0  0  0  0  2  0  0  0  0
    0.0000   -0.2062    0.0000 O   0  0  0  0  0  0  0  2  0  0  0  0
   -0.7145    0.2062    0.0000 C   0  0  0  0  0  0  0  2  0  0  0  0
   -1.4289   -0.2062    0.0000 C   0  0  0  0  0  0  0  2  0  0  0  0
   -1.4289   -1.0313    0.0000 Cl  0  0  0  0  0  0  0  2  0  0  0  0
   -2.1434    0.2062    0.0000 Cl  0  0  0  0  0  0  0  2  0  0  0  0
  1  2  2  0        0
  2  3  1  0        0
  3  4  1  0        0
  2  5  1  0        0
  5  6  1  0        0
  2  7  1  0        0
  7  8  1  0        0
  8  9  2  0        0
  9 10  1  0        0
  9 11  1  0        0
M  END
>  <CAS RN>
62737

>  <SMILES>
O=P(OC)(OC)OC=C(Cl)Cl

>  <Measured or Estimated Log10(mmol/L)>
-3.760778279

$$$$

CDXL12

  3  2  0  0  0  0  0  0  0  0999 V2000
    0.7145   -0.2062    0.0000 O   0  0  0  0  0  0  0  2  0  0  0  0
    0.0000    0.2062    0.0000 C   0  0  0  0  0  0  0  2  0  0  0  0
   -0.7145   -0.2062    0.0000 C   0  0  0  0  0  0  0  2  0  0  0  0
  1  2  1  0        0
  2  3  1  0        0
M  END
>  <CAS RN>
64175

>  <SMILES>
OCC

>  <Measured or Estimated Log10(mmol/L)>
2.410419499

$$$$

CDXL12

  4  3  0  0  0  0  0  0  0  0999 V2000
    0.0000    0.6188    0.0000 O   0  0  0  0  0  0  0  2  0  0  0  0
    0.0000   -0.2062    0.0000 C   0  0  0  0  0  0  0  2  0  0  0  0
    0.7145   -0.6188    0.0000 O   0  0  0  0  0  0  0  2  0  0  0  0
   -0.7145   -0.6187    0.0000 C   0  0  0  0  0  0  0  2  0  0  0  0
  1  2  2  0        0
  2  3  1  0        0
  2  4  1  0        0
M  END
>  <CAS RN>
64197

>  <SMILES>
O=C(O)C

>  <Measured or Estimated Log10(mmol/L)>
-0.405294077

$$$$

CDXL12

 31 34  0  0  0  0  0  0  0  0999 V2000
    3.0455    1.7850    0.0000 C   0  0  0  0  0  0  0  2  0  0  0  0
    3.6586    1.2330    0.0000 N   0  0  0  0  0  0  0  2  0  0  0  0
    3.5724    0.4125    0.0000 C   0  0  0  0  0  0  0  2  0  0  0  0
    2.8579    0.0000    0.0000 C   0  0  0  0  0  0  0  2  0  0  0  0
    2.8579   -0.8250    0.0000 C   0  0  0  0  0  0  0  2  0  0  0  0
    2.1434   -1.2375    0.0000 C   0  0  0  0  0  0  0  2  0  0  0  0
    1.4289   -0.8250    0.0000 C   0  0  0  0  0  0  0  2  0  0  0  0
    1.4289   -0.0000    0.0000 N   0  0  0  0  0  0  0  2  0  0  0  0
    1.4289    0.8250    0.0000 H   0  0  0  0  0  0  0  2  0  0  0  0
    0.7145    0.4125    0.0000 O   0  0  0  0  0  0  0  2  0  0  0  0
   -0.0000    0.0000    0.0000 S   0  0  0  0  0  0  0  2  0  0  0  0
    0.4125   -0.7145    0.0000 O   0  0  0  0  0  0  0  2  0  0  0  0
   -0.4125    0.7145    0.0000 O   0  0  0  0  0  0  0  2  0  0  0  0
   -0.7145   -0.4125    0.0000 O   0  0  0  0  0  0  0  2  0  0  0  0
   -1.4289   -0.0000    0.0000 N   0  0  0  0  0  0  0  2  0  0  0  0
   -1.4289   -0.8250    0.0000 H   0  0  0  0  0  0  0  2  0  0  0  0
   -2.1434   -0.4125    0.0000 C   0  0  0  0  0  0  0  2  0  0  0  0
   -2.8579    0.0000    0.0000 C   0  0  0  0  0  0  0  2  0  0  0  0
   -3.5724   -0.4125    0.0000 C   0  0  0  0  0  0  0  2  0  0  0  0
   -4.3260   -0.0769    0.0000 C   0  0  0  0  0  0  0  2  0  0  0  0
   -4.8781   -0.6900    0.0000 C   0  0  0  0  0  0  0  2  0  0  0  0
   -4.4656   -1.4045    0.0000 C   0  0  0  0  0  0  0  2  0  0  0  0
   -3.6586   -1.2330    0.0000 N   0  0  0  0  0  0  0  2  0  0  0  0
   -3.0455   -1.7850    0.0000 C   0  0  0  0  0  0  0  2  0  0  0  0
   -2.8579    0.8250    0.0000 C   0  0  0  0  0  0  0  2  0  0  0  0
   -2.1434    1.2375    0.0000 C   0  0  0  0  0  0  0  2  0  0  0  0
   -1.4289    0.8250    0.0000 C   0  0  0  0  0  0  0  2  0  0  0  0
    2.1434    0.4125    0.0000 C   0  0  0  0  0  0  0  2  0  0  0  0
    4.3260    0.0769    0.0000 C   0  0  0  0  0  0  0  2  0  0  0  0
    4.8781    0.6900    0.0000 C   0  0  0  0  0  0  0  2  0  0  0  0
    4.4656    1.4045    0.0000 C   0  0  0  0  0  0  0  2  0  0  0  0
  1  2  1  0        0
  2  3  1  0        0
  3  4  1  0        0
  4  5  1  0        0
  5  6  1  0        0
  6  7  1  0        0
  7  8  1  0        0
  8  9  1  0        0
  8 10  1  0        0
 10 11  1  0        0
 11 12  2  0        0
 11 13  2  0        0
 11 14  1  0        0
 14 15  1  0        0
 15 16  1  0        0
 15 17  1  0        0
 17 18  1  0        0
 18 19  1  0        0
 19 20  1  0        0
 20 21  1  0        0
 21 22  1  0        0
 22 23  1  0        0
 19 23  1  0        0
 23 24  1  0        0
 18 25  1  0        0
 25 26  1  0        0
 26 27  1  0        0
 15 27  1  0        0
  8 28  1  0        0
  4 28  1  0        0
  3 29  1  0        0
 29 30  1  0        0
 30 31  1  0        0
  2 31  1  0        0
M  END
>  <CAS RN>
65305

>  <SMILES>
CN1C(C2CCCN([H])(OS(=O)(=O)ON3([H])CC(C4CCCN4C)CCC3)C2)CCC1

>  <Measured or Estimated Log10(mmol/L)>
-2.117600676

$$$$

CDXL12

  9  9  0  0  0  0  0  0  0  0999 V2000
    0.7145    1.2375    0.0000 O   0  0  0  0  0  0  0  2  0  0  0  0
    0.7145    0.4125    0.0000 C   0  0  0  0  0  0  0  2  0  0  0  0
    1.4289   -0.0000    0.0000 O   0  0  0  0  0  0  0  2  0  0  0  0
    0.0000   -0.0000    0.0000 C   0  0  0  0  0  0  0  2  0  0  0  0
   -0.7145    0.4125    0.0000 C   0  0  0  0  0  0  0  2  0  0  0  0
   -1.4289   -0.0000    0.0000 C   0  0  0  0  0  0  0  2  0  0  0  0
   -1.4289   -0.8250    0.0000 C   0  0  0  0  0  0  0  2  0  0  0  0
   -0.7145   -1.2375    0.0000 C   0  0  0  0  0  0  0  2  0  0  0  0
    0.0000   -0.8250    0.0000 C   0  0  0  0  0  0  0  2  0  0  0  0
  1  2  2  0        0
  2  3  1  0        0
  2  4  1  0        0
  4  5  4  0        0
  5  6  4  0        0
  6  7  4  0        0
  7  8  4  0        0
  8  9  4  0        0
  4  9  4  0        0
M  END
>  <CAS RN>
65850

>  <SMILES>
O=C(O)c1ccccc1

>  <Measured or Estimated Log10(mmol/L)>
0.844941

$$$$

CDXL12

 16 17  0  0  0  0  0  0  0  0999 V2000
    0.5052   -1.2170    0.0000 C   0  0  0  0  0  0  0  2  0  0  0  0
    1.3122   -1.3885    0.0000 C   0  0  0  0  0  0  0  2  0  0  0  0
    1.7247   -0.6740    0.0000 C   0  0  0  0  0  0  0  2  0  0  0  0
    2.5452   -0.5878    0.0000 N   0  0  0  0  0  0  0  2  0  0  0  0
    2.8808    0.1659    0.0000 O   0  0  0  0  0  0  0  2  0  0  0  0
    3.0301   -1.2552    0.0000 O   0  0  0  0  0  0  0  2  0  0  0  0
    1.1727   -0.0609    0.0000 O   0  0  0  0  0  0  0  2  0  0  0  0
    0.4190   -0.3965    0.0000 C   0  0  0  0  0  0  0  2  0  0  0  0
   -0.2955    0.0160    0.0000 C   0  0  0  0  0  0  0  2  0  0  0  0
   -1.0099   -0.3965    0.0000 N   0  0  0  0  0  0  0  2  0  0  0  0
   -1.7244    0.0160    0.0000 N   0  0  0  0  0  0  0  2  0  0  0  0
   -1.8106    0.8365    0.0000 C   0  0  0  0  0  0  0  2  0  0  0  0
   -1.1975    1.3885    0.0000 O   0  0  0  0  0  0  0  2  0  0  0  0
   -2.6176    1.0080    0.0000 O   0  0  0  0  0  0  0  2  0  0  0  0
   -3.0301    0.2935    0.0000 C   0  0  0  0  0  0  0  2  0  0  0  0
   -2.4781   -0.3196    0.0000 C   0  0  0  0  0  0  0  2  0  0  0  0
  1  2  4  0        0
  2  3  4  0        0
  3  4  1  0        0
  4  5  2  0        0
  4  6  2  0        0
  3  7  4  0        0
  7  8  4  0        0
  1  8  4  0        0
  8  9  1  0        0
  9 10  2  0        0
 10 11  1  0        0
 11 12  1  0        0
 12 13  2  0        0
 12 14  1  0        0
 14 15  1  0        0
 15 16  1  0        0
 11 16  1  0        0
M  END
>  <CAS RN>
67458

>  <SMILES>
c1cc(N(=O)=O)oc1C=NN1C(=O)OCC1

>  <Measured or Estimated Log10(mmol/L)>
-3.999124275

$$$$

CDXL12

  9  9  0  0  0  0  0  0  0  0999 V2000
    1.3056   -0.7023    0.0000 C   0  0  0  0  0  0  0  2  0  0  0  0
    2.0200   -0.2898    0.0000 O   0  0  0  0  0  0  0  2  0  0  0  0
    0.5911   -0.2898    0.0000 C   0  0  0  0  0  0  0  2  0  0  0  0
    0.5048    0.5307    0.0000 C   0  0  0  0  0  0  0  2  0  0  0  0
   -0.3021    0.7023    0.0000 C   0  0  0  0  0  0  0  2  0  0  0  0
   -0.7146   -0.0122    0.0000 C   0  0  0  0  0  0  0  2  0  0  0  0
   -1.5351   -0.0985    0.0000 C   0  0  0  0  0  0  0  2  0  0  0  0
   -2.0200    0.5690    0.0000 O   0  0  0  0  0  0  0  2  0  0  0  0
   -0.1626   -0.6253    0.0000 O   0  0  0  0  0  0  0  2  0  0  0  0
  1  2  1  0        0
  1  3  1  0        0
  3  4  4  0        0
  4  5  4  0        0
  5  6  4  0        0
  6  7  1  0        0
  7  8  2  0        0
  6  9  4  0        0
  3  9  4  0        0
M  END
>  <CAS RN>
67470

>  <SMILES>
C(O)c1ccc(C=O)o1

>  <Measured or Estimated Log10(mmol/L)>
-0.614557878

$$$$

CDXL12

  2  1  0  0  0  0  0  0  0  0999 V2000
    0.4125    0.0000    0.0000 O   0  0  0  0  0  0  0  2  0  0  0  0
   -0.4125    0.0000    0.0000 C   0  0  0  0  0  0  0  2  0  0  0  0
  1  2  1  0        0
M  END
>  <CAS RN>
67561

>  <SMILES>
OC

>  <Measured or Estimated Log10(mmol/L)>
2.011344257

$$$$

CDXL12

  4  3  0  0  0  0  0  0  0  0999 V2000
    0.0000    0.6188    0.0000 O   0  0  0  0  0  0  0  2  0  0  0  0
    0.0000   -0.2062    0.0000 C   0  0  0  0  0  0  0  2  0  0  0  0
    0.7145   -0.6188    0.0000 C   0  0  0  0  0  0  0  2  0  0  0  0
   -0.7145   -0.6187    0.0000 C   0  0  0  0  0  0  0  2  0  0  0  0
  1  2  1  0        0
  2  3  1  0        0
  2  4  1  0        0
M  END
>  <CAS RN>
67630

>  <SMILES>
OC(C)C

>  <Measured or Estimated Log10(mmol/L)>
2.22

$$$$

CDXL12

  4  3  0  0  0  0  0  0  0  0999 V2000
    0.0000    0.6188    0.0000 O   0  0  0  0  0  0  0  2  0  0  0  0
    0.0000   -0.2062    0.0000 C   0  0  0  0  0  0  0  2  0  0  0  0
    0.7145   -0.6188    0.0000 C   0  0  0  0  0  0  0  2  0  0  0  0
   -0.7145   -0.6187    0.0000 C   0  0  0  0  0  0  0  2  0  0  0  0
  1  2  2  0        0
  2  3  1  0        0
  2  4  1  0        0
M  END
>  <CAS RN>
67641

>  <SMILES>
O=C(C)C

>  <Measured or Estimated Log10(mmol/L)>
2.200610096

$$$$

CDXL12

  4  3  0  0  0  0  0  0  0  0999 V2000
    0.0000   -0.2062    0.0000 C   0  0  0  0  0  0  0  2  0  0  0  0
   -0.7145   -0.6187    0.0000 Cl  0  0  0  0  0  0  0  2  0  0  0  0
    0.7145   -0.6188    0.0000 Cl  0  0  0  0  0  0  0  2  0  0  0  0
    0.0000    0.6188    0.0000 Cl  0  0  0  0  0  0  0  2  0  0  0  0
  1  2  1  0        0
  1  3  1  0        0
  1  4  1  0        0
M  END
>  <CAS RN>
67663

>  <SMILES>
C(Cl)(Cl)Cl

>  <Measured or Estimated Log10(mmol/L)>
-0.252147836

$$$$

CDXL12

  8  7  0  0  0  0  0  0  0  0999 V2000
    0.4125   -0.0000    0.0000 C   0  0  0  0  0  0  0  2  0  0  0  0
   -0.4125   -0.0000    0.0000 C   0  0  0  0  0  0  0  2  0  0  0  0
   -0.8250   -0.7145    0.0000 Cl  0  0  0  0  0  0  0  2  0  0  0  0
   -0.8250    0.7145    0.0000 Cl  0  0  0  0  0  0  0  2  0  0  0  0
   -1.2375   -0.0000    0.0000 Cl  0  0  0  0  0  0  0  2  0  0  0  0
    0.8250    0.7145    0.0000 Cl  0  0  0  0  0  0  0  2  0  0  0  0
    0.8250   -0.7145    0.0000 Cl  0  0  0  0  0  0  0  2  0  0  0  0
    1.2375   -0.0000    0.0000 Cl  0  0  0  0  0  0  0  2  0  0  0  0
  1  2  1  0        0
  2  3  1  0        0
  2  4  1  0        0
  2  5  1  0        0
  1  6  1  0        0
  1  7  1  0        0
  1  8  1  0        0
M  END
>  <CAS RN>
67721

>  <SMILES>
C(C(Cl)(Cl)Cl)(Cl)(Cl)Cl

>  <Measured or Estimated Log10(mmol/L)>
-1.911873645

$$$$

CDXL12

  5  4  0  0  0  0  0  0  0  0999 V2000
   -1.0717   -0.2062    0.0000 O   0  0  0  0  0  0  0  2  0  0  0  0
   -0.3572   -0.6187    0.0000 C   0  0  0  0  0  0  0  2  0  0  0  0
    0.3572   -0.2062    0.0000 N   0  0  0  0  0  0  0  2  0  0  0  0
    0.3572    0.6187    0.0000 C   0  0  0  0  0  0  0  2  0  0  0  0
    1.0717   -0.6187    0.0000 C   0  0  0  0  0  0  0  2  0  0  0  0
  1  2  2  0        0
  2  3  1  0        0
  3  4  1  0        0
  3  5  1  0        0
M  END
>  <CAS RN>
68122

>  <SMILES>
O=CN(C)C

>  <Measured or Estimated Log10(mmol/L)>
2.298377944

$$$$

CDXL12

 17 18  0  0  0  0  0  0  0  0999 V2000
    0.4125   -0.2467    0.0000 O   0  0  0  0  0  0  0  2  0  0  0  0
   -0.0000    0.4678    0.0000 S   0  0  0  0  0  0  0  2  0  0  0  0
   -0.4125    1.1822    0.0000 O   0  0  0  0  0  0  0  2  0  0  0  0
    0.7145    0.8803    0.0000 N   0  0  0  0  0  0  0  2  0  0  0  0
    1.4289    0.4678    0.0000 C   0  0  0  0  0  0  0  2  0  0  0  0
    2.1434    0.8803    0.0000 N   0  0  0  0  0  0  0  2  0  0  0  0
    2.8579    0.4678    0.0000 C   0  0  0  0  0  0  0  2  0  0  0  0
    2.8579   -0.3572    0.0000 C   0  0  0  0  0  0  0  2  0  0  0  0
    2.1434   -0.7697    0.0000 C   0  0  0  0  0  0  0  2  0  0  0  0
    1.4289   -0.3572    0.0000 N   0  0  0  0  0  0  0  2  0  0  0  0
   -0.7145    0.0553    0.0000 C   0  0  0  0  0  0  0  2  0  0  0  0
   -0.7145   -0.7697    0.0000 C   0  0  0  0  0  0  0  2  0  0  0  0
   -1.4289   -1.1822    0.0000 C   0  0  0  0  0  0  0  2  0  0  0  0
   -2.1434   -0.7697    0.0000 C   0  0  0  0  0  0  0  2  0  0  0  0
   -2.8579   -1.1822    0.0000 N   0  0  0  0  0  0  0  2  0  0  0  0
   -2.1434    0.0553    0.0000 C   0  0  0  0  0  0  0  2  0  0  0  0
   -1.4289    0.4678    0.0000 C   0  0  0  0  0  0  0  2  0  0  0  0
  1  2  2  0        0
  2  3  2  0        0
  2  4  1  0        0
  4  5  1  0        0
  5  6  4  0        0
  6  7  4  0        0
  7  8  4  0        0
  8  9  4  0        0
  9 10  4  0        0
  5 10  4  0        0
  2 11  1  0        0
 11 12  4  0        0
 12 13  4  0        0
 13 14  4  0        0
 14 15  1  0        0
 14 16  4  0        0
 16 17  4  0        0
 11 17  4  0        0
M  END
>  <CAS RN>
68359

>  <SMILES>
O=S(=O)(Nc1ncccn1)c1ccc(N)cc1

>  <Measured or Estimated Log10(mmol/L)>
-0.054033864

$$$$

CDXL12

 10 10  0  0  0  0  0  0  0  0999 V2000
    0.7145    1.2375    0.0000 O   0  0  0  0  0  0  0  2  0  0  0  0
    0.7145    0.4125    0.0000 C   0  0  0  0  0  0  0  2  0  0  0  0
    1.4289   -0.0000    0.0000 O   0  0  0  0  0  0  0  2  0  0  0  0
    0.0000   -0.0000    0.0000 C   0  0  0  0  0  0  0  2  0  0  0  0
    0.0000   -0.8250    0.0000 C   0  0  0  0  0  0  0  2  0  0  0  0
    0.7145   -1.2375    0.0000 O   0  0  0  0  0  0  0  2  0  0  0  0
   -0.7145   -1.2375    0.0000 C   0  0  0  0  0  0  0  2  0  0  0  0
   -1.4289   -0.8250    0.0000 C   0  0  0  0  0  0  0  2  0  0  0  0
   -1.4289    0.0000    0.0000 C   0  0  0  0  0  0  0  2  0  0  0  0
   -0.7145    0.4125    0.0000 C   0  0  0  0  0  0  0  2  0  0  0  0
  1  2  2  0        0
  2  3  1  0        0
  2  4  1  0        0
  4  5  4  0        0
  5  6  1  0        0
  5  7  4  0        0
  7  8  4  0        0
  8  9  4  0        0
  9 10  4  0        0
  4 10  4  0        0
M  END
>  <CAS RN>
69727

>  <SMILES>
O=C(O)c1c(O)cccc1

>  <Measured or Estimated Log10(mmol/L)>
0.02

$$$$

CDXL12

  5  4  0  0  0  0  0  0  0  0999 V2000
   -1.4289   -0.2062    0.0000 O   0  0  0  0  0  0  0  2  0  0  0  0
   -0.7145    0.2062    0.0000 C   0  0  0  0  0  0  0  2  0  0  0  0
    0.0000   -0.2062    0.0000 C   0  0  0  0  0  0  0  2  0  0  0  0
    0.7145    0.2062    0.0000 C   0  0  0  0  0  0  0  2  0  0  0  0
    1.4289   -0.2062    0.0000 C   0  0  0  0  0  0  0  2  0  0  0  0
  1  2  1  0        0
  2  3  1  0        0
  3  4  1  0        0
  4  5  1  0        0
M  END
>  <CAS RN>
71363

>  <SMILES>
OCCCC

>  <Measured or Estimated Log10(mmol/L)>
1.155834

$$$$

CDXL12

  6  5  0  0  0  0  0  0  0  0999 V2000
   -1.7862   -0.2062    0.0000 O   0  0  0  0  0  0  0  2  0  0  0  0
   -1.0717    0.2062    0.0000 C   0  0  0  0  0  0  0  2  0  0  0  0
   -0.3572   -0.2062    0.0000 C   0  0  0  0  0  0  0  2  0  0  0  0
    0.3572    0.2062    0.0000 C   0  0  0  0  0  0  0  2  0  0  0  0
    1.0717   -0.2062    0.0000 C   0  0  0  0  0  0  0  2  0  0  0  0
    1.7862    0.2062    0.0000 C   0  0  0  0  0  0  0  2  0  0  0  0
  1  2  1  0        0
  2  3  1  0        0
  3  4  1  0        0
  4  5  1  0        0
  5  6  1  0        0
M  END
>  <CAS RN>
71410

>  <SMILES>
OCCCCC

>  <Measured or Estimated Log10(mmol/L)>
0.5547742

$$$$

CDXL12

  6  6  0  0  0  0  0  0  0  0999 V2000
    0.7145   -0.4125    0.0000 C   0  0  0  0  0  0  0  2  0  0  0  0
    0.0000   -0.8250    0.0000 C   0  0  0  0  0  0  0  2  0  0  0  0
   -0.7145   -0.4125    0.0000 C   0  0  0  0  0  0  0  2  0  0  0  0
   -0.7145    0.4125    0.0000 C   0  0  0  0  0  0  0  2  0  0  0  0
    0.0000    0.8250    0.0000 C   0  0  0  0  0  0  0  2  0  0  0  0
    0.7145    0.4125    0.0000 C   0  0  0  0  0  0  0  2  0  0  0  0
  1  2  4  0        0
  2  3  4  0        0
  3  4  4  0        0
  4  5  4  0        0
  5  6  4  0        0
  1  6  4  0        0
M  END
>  <CAS RN>
71432

>  <SMILES>
c1ccccc1

>  <Measured or Estimated Log10(mmol/L)>
0.658721121

$$$$

CDXL12

  5  4  0  0  0  0  0  0  0  0999 V2000
    0.0000   -0.0000    0.0000 C   0  0  0  0  0  0  0  2  0  0  0  0
    0.0000   -0.8250    0.0000 Cl  0  0  0  0  0  0  0  2  0  0  0  0
    0.8250   -0.0000    0.0000 Cl  0  0  0  0  0  0  0  2  0  0  0  0
    0.0000    0.8250    0.0000 Cl  0  0  0  0  0  0  0  2  0  0  0  0
   -0.8250   -0.0000    0.0000 C   0  0  0  0  0  0  0  2  0  0  0  0
  1  2  1  0        0
  1  3  1  0        0
  1  4  1  0        0
  1  5  1  0        0
M  END
>  <CAS RN>
71556

>  <SMILES>
C(Cl)(Cl)(Cl)C

>  <Measured or Estimated Log10(mmol/L)>
-1.075954085

$$$$

CDXL12

 21 22  0  0  0  0  0  0  0  0999 V2000
    2.5006    2.2687    0.0000 C   0  0  0  0  0  0  0  2  0  0  0  0
    1.7862    2.6812    0.0000 O   0  0  0  0  0  0  0  2  0  0  0  0
    1.0717    2.2687    0.0000 C   0  0  0  0  0  0  0  2  0  0  0  0
    1.0717    1.4437    0.0000 C   0  0  0  0  0  0  0  2  0  0  0  0
    0.3572    1.0313    0.0000 C   0  0  0  0  0  0  0  2  0  0  0  0
   -0.3572    1.4437    0.0000 C   0  0  0  0  0  0  0  2  0  0  0  0
   -0.3572    2.2687    0.0000 C   0  0  0  0  0  0  0  2  0  0  0  0
    0.3572    2.6812    0.0000 C   0  0  0  0  0  0  0  2  0  0  0  0
   -1.0717    1.0313    0.0000 C   0  0  0  0  0  0  0  2  0  0  0  0
   -1.0717    0.2063    0.0000 C   0  0  0  0  0  0  0  2  0  0  0  0
   -0.3572   -0.2062    0.0000 C   0  0  0  0  0  0  0  2  0  0  0  0
   -0.3572   -1.0312    0.0000 C   0  0  0  0  0  0  0  2  0  0  0  0
   -1.0717   -1.4437    0.0000 C   0  0  0  0  0  0  0  2  0  0  0  0
   -1.0717   -2.2687    0.0000 O   0  0  0  0  0  0  0  2  0  0  0  0
   -1.7862   -2.6812    0.0000 C   0  0  0  0  0  0  0  2  0  0  0  0
   -1.7862   -1.0312    0.0000 C   0  0  0  0  0  0  0  2  0  0  0  0
   -1.7862   -0.2062    0.0000 C   0  0  0  0  0  0  0  2  0  0  0  0
   -1.7862    1.4437    0.0000 C   0  0  0  0  0  0  0  2  0  0  0  0
   -2.5006    1.0313    0.0000 Cl  0  0  0  0  0  0  0  2  0  0  0  0
   -1.7862    2.2687    0.0000 Cl  0  0  0  0  0  0  0  2  0  0  0  0
   -2.5006    1.8562    0.0000 Cl  0  0  0  0  0  0  0  2  0  0  0  0
  1  2  1  0        0
  2  3  1  0        0
  3  4  4  0        0
  4  5  4  0        0
  5  6  4  0        0
  6  7  4  0        0
  7  8  4  0        0
  3  8  4  0        0
  6  9  1  0        0
  9 10  1  0        0
 10 11  4  0        0
 11 12  4  0        0
 12 13  4  0        0
 13 14  1  0        0
 14 15  1  0        0
 13 16  4  0        0
 16 17  4  0        0
 10 17  4  0        0
  9 18  1  0        0
 18 19  1  0        0
 18 20  1  0        0
 18 21  1  0        0
M  END
>  <CAS RN>
72435

>  <SMILES>
COc1ccc(cc1)C(c1ccc(OC)cc1)C(Cl)(Cl)Cl

>  <Measured or Estimated Log10(mmol/L)>
-3.839670326

$$$$

CDXL12

 18 19  0  0  0  0  0  0  0  0999 V2000
    0.7145   -0.8250    0.0000 C   0  0  0  0  0  0  0  2  0  0  0  0
    1.4289   -1.2375    0.0000 C   0  0  0  0  0  0  0  2  0  0  0  0
    2.1434   -0.8250    0.0000 Cl  0  0  0  0  0  0  0  2  0  0  0  0
    1.4289   -2.0625    0.0000 Cl  0  0  0  0  0  0  0  2  0  0  0  0
    0.0000   -1.2375    0.0000 C   0  0  0  0  0  0  0  2  0  0  0  0
    0.0000   -2.0625    0.0000 C   0  0  0  0  0  0  0  2  0  0  0  0
   -0.7145   -2.4750    0.0000 C   0  0  0  0  0  0  0  2  0  0  0  0
   -1.4289   -2.0625    0.0000 C   0  0  0  0  0  0  0  2  0  0  0  0
   -2.1434   -2.4750    0.0000 Cl  0  0  0  0  0  0  0  2  0  0  0  0
   -1.4289   -1.2375    0.0000 C   0  0  0  0  0  0  0  2  0  0  0  0
   -0.7145   -0.8250    0.0000 C   0  0  0  0  0  0  0  2  0  0  0  0
    0.7145   -0.0000    0.0000 C   0  0  0  0  0  0  0  2  0  0  0  0
    0.0000    0.4125    0.0000 C   0  0  0  0  0  0  0  2  0  0  0  0
    0.0000    1.2375    0.0000 C   0  0  0  0  0  0  0  2  0  0  0  0
    0.7145    1.6500    0.0000 C   0  0  0  0  0  0  0  2  0  0  0  0
    0.7145    2.4750    0.0000 Cl  0  0  0  0  0  0  0  2  0  0  0  0
    1.4289    1.2375    0.0000 C   0  0  0  0  0  0  0  2  0  0  0  0
    1.4289    0.4125    0.0000 C   0  0  0  0  0  0  0  2  0  0  0  0
  1  2  1  0        0
  2  3  1  0        0
  2  4  1  0        0
  1  5  1  0        0
  5  6  4  0        0
  6  7  4  0        0
  7  8  4  0        0
  8  9  1  0        0
  8 10  4  0        0
 10 11  4  0        0
  5 11  4  0        0
  1 12  1  0        0
 12 13  4  0        0
 13 14  4  0        0
 14 15  4  0        0
 15 16  1  0        0
 15 17  4  0        0
 17 18  4  0        0
 12 18  4  0        0
M  END
>  <CAS RN>
72548

>  <SMILES>
C(C(Cl)Cl)(c1ccc(Cl)cc1)c1ccc(Cl)cc1

>  <Measured or Estimated Log10(mmol/L)>
-5.313284097

$$$$

CDXL12

 20 21  0  0  0  0  0  0  0  0999 V2000
    2.5006    2.2687    0.0000 C   0  0  0  0  0  0  0  2  0  0  0  0
    1.7862    2.6812    0.0000 C   0  0  0  0  0  0  0  2  0  0  0  0
    1.0717    2.2687    0.0000 C   0  0  0  0  0  0  0  2  0  0  0  0
    1.0717    1.4437    0.0000 C   0  0  0  0  0  0  0  2  0  0  0  0
    0.3572    1.0313    0.0000 C   0  0  0  0  0  0  0  2  0  0  0  0
   -0.3572    1.4437    0.0000 C   0  0  0  0  0  0  0  2  0  0  0  0
   -0.3572    2.2687    0.0000 C   0  0  0  0  0  0  0  2  0  0  0  0
    0.3572    2.6812    0.0000 C   0  0  0  0  0  0  0  2  0  0  0  0
   -1.0717    1.0313    0.0000 C   0  0  0  0  0  0  0  2  0  0  0  0
   -1.7862    1.4437    0.0000 C   0  0  0  0  0  0  0  2  0  0  0  0
   -2.5006    1.0313    0.0000 Cl  0  0  0  0  0  0  0  2  0  0  0  0
   -1.7862    2.2687    0.0000 Cl  0  0  0  0  0  0  0  2  0  0  0  0
   -1.0717    0.2063    0.0000 C   0  0  0  0  0  0  0  2  0  0  0  0
   -0.3572   -0.2062    0.0000 C   0  0  0  0  0  0  0  2  0  0  0  0
   -0.3572   -1.0312    0.0000 C   0  0  0  0  0  0  0  2  0  0  0  0
   -1.0717   -1.4437    0.0000 C   0  0  0  0  0  0  0  2  0  0  0  0
   -1.0717   -2.2687    0.0000 C   0  0  0  0  0  0  0  2  0  0  0  0
   -1.7862   -2.6812    0.0000 C   0  0  0  0  0  0  0  2  0  0  0  0
   -1.7862   -1.0312    0.0000 C   0  0  0  0  0  0  0  2  0  0  0  0
   -1.7862   -0.2062    0.0000 C   0  0  0  0  0  0  0  2  0  0  0  0
  1  2  1  0        0
  2  3  1  0        0
  3  4  4  0        0
  4  5  4  0        0
  5  6  4  0        0
  6  7  4  0        0
  7  8  4  0        0
  3  8  4  0        0
  6  9  1  0        0
  9 10  1  0        0
 10 11  1  0        0
 10 12  1  0        0
  9 13  1  0        0
 13 14  4  0        0
 14 15  4  0        0
 15 16  4  0        0
 16 17  1  0        0
 17 18  1  0        0
 16 19  4  0        0
 19 20  4  0        0
 13 20  4  0        0
M  END
>  <CAS RN>
72560

>  <SMILES>
CCc1ccc(cc1)C(C(Cl)Cl)c1ccc(CC)cc1

>  <Measured or Estimated Log10(mmol/L)>
-4.968538469

$$$$

CDXL12

 10 10  0  0  0  0  0  0  0  0999 V2000
    1.0717    1.2375    0.0000 O   0  0  0  0  0  0  0  2  0  0  0  0
    1.0717    0.4125    0.0000 C   0  0  0  0  0  0  0  2  0  0  0  0
    1.7862   -0.0000    0.0000 O   0  0  0  0  0  0  0  2  0  0  0  0
    0.3572   -0.0000    0.0000 C   0  0  0  0  0  0  0  2  0  0  0  0
   -0.3572    0.4125    0.0000 C   0  0  0  0  0  0  0  2  0  0  0  0
   -1.0717   -0.0000    0.0000 C   0  0  0  0  0  0  0  2  0  0  0  0
   -1.0717   -0.8250    0.0000 C   0  0  0  0  0  0  0  2  0  0  0  0
   -0.3572   -1.2375    0.0000 C   0  0  0  0  0  0  0  2  0  0  0  0
    0.3572   -0.8250    0.0000 C   0  0  0  0  0  0  0  2  0  0  0  0
   -1.7862   -1.2375    0.0000 Cl  0  0  0  0  0  0  0  2  0  0  0  0
  1  2  2  0        0
  2  3  1  0        0
  2  4  1  0        0
  4  5  4  0        0
  5  6  4  0        0
  6  7  4  0        0
  7  8  4  0        0
  8  9  4  0        0
  4  9  4  0        0
  7 10  1  0        0
M  END
>  <CAS RN>
74113

>  <SMILES>
O=C(O)c1ccc(cc1)Cl

>  <Measured or Estimated Log10(mmol/L)>
-0.314287526

$$$$

CDXL12

  2  1  0  0  0  0  0  0  0  0999 V2000
    0.4125    0.0000    0.0000 Br  0  0  0  0  0  0  0  2  0  0  0  0
   -0.4125    0.0000    0.0000 C   0  0  0  0  0  0  0  2  0  0  0  0
  1  2  1  0        0
M  END
>  <CAS RN>
74839

>  <SMILES>
BrC

>  <Measured or Estimated Log10(mmol/L)>
-1.635044844

$$$$

CDXL12

  3  2  0  0  0  0  0  0  0  0999 V2000
    0.7145   -0.2062    0.0000 N   0  0  0  0  0  0  0  2  0  0  0  0
    0.0000    0.2062    0.0000 C   0  0  0  0  0  0  0  2  0  0  0  0
   -0.7145   -0.2062    0.0000 C   0  0  0  0  0  0  0  2  0  0  0  0
  1  2  1  0        0
  2  3  1  0        0
M  END
>  <CAS RN>
75047

>  <SMILES>
NCC

>  <Measured or Estimated Log10(mmol/L)>
0.1091609

$$$$

CDXL12

  3  2  0  0  0  0  0  0  0  0999 V2000
   -0.8250    0.0000    0.0000 N   0  0  0  0  0  0  0  2  0  0  0  0
    0.0000    0.0000    0.0000 C   0  0  0  0  0  0  0  2  0  0  0  0
    0.8250    0.0000    0.0000 C   0  0  0  0  0  0  0  2  0  0  0  0
  1  2  3  0        0
  2  3  1  0        0
M  END
>  <CAS RN>
75058

>  <SMILES>
N#CC

>  <Measured or Estimated Log10(mmol/L)>
1.942957602

$$$$

CDXL12

  3  2  0  0  0  0  0  0  0  0999 V2000
    0.7145   -0.2062    0.0000 O   0  0  0  0  0  0  0  2  0  0  0  0
    0.0000    0.2062    0.0000 C   0  0  0  0  0  0  0  2  0  0  0  0
   -0.7145   -0.2062    0.0000 C   0  0  0  0  0  0  0  2  0  0  0  0
  1  2  2  0        0
  2  3  1  0        0
M  END
>  <CAS RN>
75070

>  <SMILES>
O=CC

>  <Measured or Estimated Log10(mmol/L)>
2.46

$$$$

CDXL12

  3  2  0  0  0  0  0  0  0  0999 V2000
    0.0000    0.2062    0.0000 C   0  0  0  0  0  0  0  2  0  0  0  0
   -0.7145   -0.2062    0.0000 C   0  0  0  0  0  0  0  2  0  0  0  0
    0.7145   -0.2062    0.0000 S   0  0  0  0  0  0  0  2  0  0  0  0
  1  2  1  0        0
  1  3  1  0        0
M  END
>  <CAS RN>
75081

>  <SMILES>
C(C)S

>  <Measured or Estimated Log10(mmol/L)>
-2.562880392

$$$$

CDXL12

  3  2  0  0  0  0  0  0  0  0999 V2000
    0.0000    0.0000    0.0000 C   0  0  0  0  0  0  0  2  0  0  0  0
    0.8250    0.0000    0.0000 S   0  0  0  0  0  0  0  2  0  0  0  0
   -0.8250    0.0000    0.0000 S   0  0  0  0  0  0  0  2  0  0  0  0
  1  2  2  0        0
  1  3  2  0        0
M  END
>  <CAS RN>
75150

>  <SMILES>
C(=S)=S

>  <Measured or Estimated Log10(mmol/L)>
-1.559387874

$$$$

CDXL12

  3  3  0  0  0  0  0  0  0  0999 V2000
   -0.4125   -0.3572    0.0000 O   0  0  0  0  0  0  0  2  0  0  0  0
    0.0000    0.3572    0.0000 C   0  0  0  0  0  0  0  2  0  0  0  0
    0.4125   -0.3572    0.0000 C   0  0  0  0  0  0  0  2  0  0  0  0
  1  2  1  0        0
  2  3  1  0        0
  1  3  1  0        0
M  END
>  <CAS RN>
75218

>  <SMILES>
O1CC1

>  <Measured or Estimated Log10(mmol/L)>
0.683042007

$$$$

CDXL12

  4  3  0  0  0  0  0  0  0  0999 V2000
   -0.7145   -0.6187    0.0000 Br  0  0  0  0  0  0  0  2  0  0  0  0
    0.0000   -0.2062    0.0000 C   0  0  0  0  0  0  0  2  0  0  0  0
    0.7145   -0.6188    0.0000 Br  0  0  0  0  0  0  0  2  0  0  0  0
    0.0000    0.6188    0.0000 Br  0  0  0  0  0  0  0  2  0  0  0  0
  1  2  1  0        0
  2  3  1  0        0
  2  4  1  0        0
M  END
>  <CAS RN>
75252

>  <SMILES>
BrC(Br)Br

>  <Measured or Estimated Log10(mmol/L)>
-0.739926459

$$$$

CDXL12

  4  3  0  0  0  0  0  0  0  0999 V2000
    0.0000   -0.2062    0.0000 C   0  0  0  0  0  0  0  2  0  0  0  0
    0.0000    0.6188    0.0000 Cl  0  0  0  0  0  0  0  2  0  0  0  0
    0.7145   -0.6188    0.0000 C   0  0  0  0  0  0  0  2  0  0  0  0
   -0.7145   -0.6187    0.0000 C   0  0  0  0  0  0  0  2  0  0  0  0
  1  2  1  0        0
  1  3  1  0        0
  1  4  1  0        0
M  END
>  <CAS RN>
75296

>  <SMILES>
C(Cl)(C)C

>  <Measured or Estimated Log10(mmol/L)>
-0.1706428

$$$$

CDXL12

  4  3  0  0  0  0  0  0  0  0999 V2000
    0.0000   -0.2062    0.0000 C   0  0  0  0  0  0  0  2  0  0  0  0
    0.0000    0.6188    0.0000 C   0  0  0  0  0  0  0  2  0  0  0  0
   -0.7145   -0.6187    0.0000 Cl  0  0  0  0  0  0  0  2  0  0  0  0
    0.7145   -0.6188    0.0000 Cl  0  0  0  0  0  0  0  2  0  0  0  0
  1  2  2  0        0
  1  3  1  0        0
  1  4  1  0        0
M  END
>  <CAS RN>
75354

>  <SMILES>
C(=C)(Cl)Cl

>  <Measured or Estimated Log10(mmol/L)>
-0.922062946

$$$$

CDXL12

  5  4  0  0  0  0  0  0  0  0999 V2000
    0.0000    0.8250    0.0000 N   0  0  0  0  0  0  0  2  0  0  0  0
    0.0000   -0.0000    0.0000 C   0  0  0  0  0  0  0  2  0  0  0  0
    0.8250   -0.0000    0.0000 C   0  0  0  0  0  0  0  2  0  0  0  0
    0.0000   -0.8250    0.0000 C   0  0  0  0  0  0  0  2  0  0  0  0
   -0.8250   -0.0000    0.0000 C   0  0  0  0  0  0  0  2  0  0  0  0
  1  2  1  0        0
  2  3  1  0        0
  2  4  1  0        0
  2  5  1  0        0
M  END
>  <CAS RN>
75649

>  <SMILES>
NC(C)(C)C

>  <Measured or Estimated Log10(mmol/L)>
-0.015167184

$$$$

CDXL12

  6  5  0  0  0  0  0  0  0  0999 V2000
    1.0717    0.2062    0.0000 O   0  0  0  0  0  0  0  2  0  0  0  0
    0.3572   -0.2062    0.0000 C   0  0  0  0  0  0  0  2  0  0  0  0
   -0.3572   -0.6188    0.0000 C   0  0  0  0  0  0  0  2  0  0  0  0
   -1.0717   -0.2063    0.0000 C   0  0  0  0  0  0  0  2  0  0  0  0
    1.0717   -0.6188    0.0000 C   0  0  0  0  0  0  0  2  0  0  0  0
    0.3572    0.6188    0.0000 C   0  0  0  0  0  0  0  2  0  0  0  0
  1  2  1  0        0
  2  3  1  0        0
  3  4  1  0        0
  2  5  1  0        0
  2  6  1  0        0
M  END
>  <CAS RN>
75854

>  <SMILES>
OC(CC)(C)C

>  <Measured or Estimated Log10(mmol/L)>
1.4252746

$$$$

CDXL12

  7  6  0  0  0  0  0  0  0  0999 V2000
    0.3572    0.9760    0.0000 O   0  0  0  0  0  0  0  2  0  0  0  0
    0.3572    0.1510    0.0000 C   0  0  0  0  0  0  0  2  0  0  0  0
    1.0717   -0.2615    0.0000 O   0  0  0  0  0  0  0  2  0  0  0  0
   -0.3572   -0.2615    0.0000 C   0  0  0  0  0  0  0  2  0  0  0  0
   -0.7697   -0.9760    0.0000 Cl  0  0  0  0  0  0  0  2  0  0  0  0
    0.0553   -0.9760    0.0000 Cl  0  0  0  0  0  0  0  2  0  0  0  0
   -1.0717    0.1510    0.0000 C   0  0  0  0  0  0  0  2  0  0  0  0
  1  2  2  0        0
  2  3  1  0        0
  2  4  1  0        0
  4  5  1  0        0
  4  6  1  0        0
  4  7  1  0        0
M  END
>  <CAS RN>
75990

>  <SMILES>
O=C(O)C(Cl)(Cl)C

>  <Measured or Estimated Log10(mmol/L)>
-1.72209279

$$$$

CDXL12

  7  6  0  0  0  0  0  0  0  0999 V2000
    0.3572   -0.2062    0.0000 C   0  0  0  0  0  0  0  2  0  0  0  0
   -0.3572    0.2062    0.0000 C   0  0  0  0  0  0  0  2  0  0  0  0
   -1.0717   -0.2062    0.0000 Cl  0  0  0  0  0  0  0  2  0  0  0  0
   -0.3572    1.0313    0.0000 Cl  0  0  0  0  0  0  0  2  0  0  0  0
    1.0717    0.2062    0.0000 Cl  0  0  0  0  0  0  0  2  0  0  0  0
    0.3572   -1.0313    0.0000 Cl  0  0  0  0  0  0  0  2  0  0  0  0
    1.0717   -0.6188    0.0000 Cl  0  0  0  0  0  0  0  2  0  0  0  0
  1  2  1  0        0
  2  3  1  0        0
  2  4  1  0        0
  1  5  1  0        0
  1  6  1  0        0
  1  7  1  0        0
M  END
>  <CAS RN>
76017

>  <SMILES>
C(C(Cl)Cl)(Cl)(Cl)Cl

>  <Measured or Estimated Log10(mmol/L)>
-1.402895162

$$$$

CDXL12

  7  6  0  0  0  0  0  0  0  0999 V2000
    0.3572    1.0313    0.0000 O   0  0  0  0  0  0  0  2  0  0  0  0
    0.3572    0.2062    0.0000 C   0  0  0  0  0  0  0  2  0  0  0  0
    1.0717   -0.2062    0.0000 O   0  0  0  0  0  0  0  2  0  0  0  0
   -0.3572   -0.2062    0.0000 C   0  0  0  0  0  0  0  2  0  0  0  0
   -1.0717   -0.6187    0.0000 Cl  0  0  0  0  0  0  0  2  0  0  0  0
   -0.3572   -1.0313    0.0000 Cl  0  0  0  0  0  0  0  2  0  0  0  0
   -1.0717    0.2062    0.0000 Cl  0  0  0  0  0  0  0  2  0  0  0  0
  1  2  2  0        0
  2  3  1  0        0
  2  4  1  0        0
  4  5  1  0        0
  4  6  1  0        0
  4  7  1  0        0
M  END
>  <CAS RN>
76039

>  <SMILES>
O=C(O)C(Cl)(Cl)Cl

>  <Measured or Estimated Log10(mmol/L)>
1.39843183

$$$$

CDXL12

 20 22  0  0  0  0  0  0  0  0999 V2000
    0.0000   -1.2375    0.0000 O   0  0  0  0  0  0  0  2  0  0  0  0
    0.0000   -0.4125    0.0000 Sn  0  0  0  0  0  0  0  2  0  0  0  0
   -0.7145   -0.8250    0.0000 C   0  0  0  0  0  0  0  2  0  0  0  0
   -0.7145   -1.6500    0.0000 C   0  0  0  0  0  0  0  2  0  0  0  0
   -1.4289   -2.0625    0.0000 C   0  0  0  0  0  0  0  2  0  0  0  0
   -2.1434   -1.6500    0.0000 C   0  0  0  0  0  0  0  2  0  0  0  0
   -2.1434   -0.8250    0.0000 C   0  0  0  0  0  0  0  2  0  0  0  0
   -1.4289   -0.4125    0.0000 C   0  0  0  0  0  0  0  2  0  0  0  0
    0.7145   -0.8250    0.0000 C   0  0  0  0  0  0  0  2  0  0  0  0
    1.4289   -0.4125    0.0000 C   0  0  0  0  0  0  0  2  0  0  0  0
    2.1434   -0.8250    0.0000 C   0  0  0  0  0  0  0  2  0  0  0  0
    2.1434   -1.6500    0.0000 C   0  0  0  0  0  0  0  2  0  0  0  0
    1.4289   -2.0625    0.0000 C   0  0  0  0  0  0  0  2  0  0  0  0
    0.7145   -1.6500    0.0000 C   0  0  0  0  0  0  0  2  0  0  0  0
    0.0000    0.4125    0.0000 C   0  0  0  0  0  0  0  2  0  0  0  0
   -0.7145    0.8250    0.0000 C   0  0  0  0  0  0  0  2  0  0  0  0
   -0.7145    1.6500    0.0000 C   0  0  0  0  0  0  0  2  0  0  0  0
    0.0000    2.0625    0.0000 C   0  0  0  0  0  0  0  2  0  0  0  0
    0.7145    1.6500    0.0000 C   0  0  0  0  0  0  0  2  0  0  0  0
    0.7145    0.8250    0.0000 C   0  0  0  0  0  0  0  2  0  0  0  0
  1  2  1  0        0
  2  3  1  0        0
  3  4  4  0        0
  4  5  4  0        0
  5  6  4  0        0
  6  7  4  0        0
  7  8  4  0        0
  3  8  4  0        0
  2  9  1  0        0
  9 10  4  0        0
 10 11  4  0        0
 11 12  4  0        0
 12 13  4  0        0
 13 14  4  0        0
  9 14  4  0        0
  2 15  1  0        0
 15 16  4  0        0
 16 17  4  0        0
 17 18  4  0        0
 18 19  4  0        0
 19 20  4  0        0
 15 20  4  0        0
M  END
>  <CAS RN>
76879

>  <SMILES>
O[Sn](c1ccccc1)(c1ccccc1)c1ccccc1

>  <Measured or Estimated Log10(mmol/L)>
-3.425294325

$$$$

CDXL12

  0  0  0  0  0  0  0  0  0  0999 V2000
M  END
>  <CAS RN>
77474

>  <SMILES>
C\1(=C(\C(=C(\Cl)/C1(Cl)Cl)\Cl)/Cl)/Cl

>  <Measured or Estimated Log10(mmol/L)>
-3.844736773

$$$$

CDXL12

 37 36  0  0  0  0  0  0  0  0999 V2000
   -9.2881   -0.4125    0.0000 C   0  0  0  0  0  0  0  2  0  0  0  0
   -8.5737   -0.0000    0.0000 C   0  0  0  0  0  0  0  2  0  0  0  0
   -7.8592   -0.4125    0.0000 C   0  0  0  0  0  0  0  2  0  0  0  0
   -7.1447   -0.0000    0.0000 C   0  0  0  0  0  0  0  2  0  0  0  0
   -6.4302   -0.4125    0.0000 C   0  0  0  0  0  0  0  2  0  0  0  0
   -5.7158   -0.0000    0.0000 C   0  0  0  0  0  0  0  2  0  0  0  0
   -5.0013   -0.4125    0.0000 C   0  0  0  0  0  0  0  2  0  0  0  0
   -4.2868   -0.0000    0.0000 C   0  0  0  0  0  0  0  2  0  0  0  0
   -3.5724   -0.4125    0.0000 C   0  0  0  0  0  0  0  2  0  0  0  0
   -2.8579   -0.0000    0.0000 C   0  0  0  0  0  0  0  2  0  0  0  0
   -2.1434   -0.4125    0.0000 C   0  0  0  0  0  0  0  2  0  0  0  0
   -1.4289   -0.0000    0.0000 C   0  0  0  0  0  0  0  2  0  0  0  0
   -1.4289    0.8250    0.0000 O   0  0  0  0  0  0  0  2  0  0  0  0
   -0.7145   -0.4125    0.0000 O   0  0  0  0  0  0  0  2  0  0  0  0
   -0.0000    0.0000    0.0000 Sn  0  0  0  0  0  0  0  2  0  0  0  0
    0.4125   -0.7145    0.0000 C   0  0  0  0  0  0  0  2  0  0  0  0
   -0.0000   -1.4289    0.0000 C   0  0  0  0  0  0  0  2  0  0  0  0
    0.4125   -2.1434    0.0000 C   0  0  0  0  0  0  0  2  0  0  0  0
   -0.0000   -2.8579    0.0000 C   0  0  0  0  0  0  0  2  0  0  0  0
   -0.4125    0.7145    0.0000 C   0  0  0  0  0  0  0  2  0  0  0  0
   -0.0000    1.4289    0.0000 C   0  0  0  0  0  0  0  2  0  0  0  0
   -0.4125    2.1434    0.0000 C   0  0  0  0  0  0  0  2  0  0  0  0
   -0.0000    2.8579    0.0000 C   0  0  0  0  0  0  0  2  0  0  0  0
    0.7145    0.4125    0.0000 O   0  0  0  0  0  0  0  2  0  0  0  0
    1.4289   -0.0000    0.0000 C   0  0  0  0  0  0  0  2  0  0  0  0
    1.4289   -0.8250    0.0000 O   0  0  0  0  0  0  0  2  0  0  0  0
    2.1434    0.4125    0.0000 C   0  0  0  0  0  0  0  2  0  0  0  0
    2.8579   -0.0000    0.0000 C   0  0  0  0  0  0  0  2  0  0  0  0
    3.5724    0.4125    0.0000 C   0  0  0  0  0  0  0  2  0  0  0  0
    4.2868   -0.0000    0.0000 C   0  0  0  0  0  0  0  2  0  0  0  0
    5.0013    0.4125    0.0000 C   0  0  0  0  0  0  0  2  0  0  0  0
    5.7158   -0.0000    0.0000 C   0  0  0  0  0  0  0  2  0  0  0  0
    6.4302    0.4125    0.0000 C   0  0  0  0  0  0  0  2  0  0  0  0
    7.1447   -0.0000    0.0000 C   0  0  0  0  0  0  0  2  0  0  0  0
    7.8592    0.4125    0.0000 C   0  0  0  0  0  0  0  2  0  0  0  0
    8.5737   -0.0000    0.0000 C   0  0  0  0  0  0  0  2  0  0  0  0
    9.2881    0.4125    0.0000 C   0  0  0  0  0  0  0  2  0  0  0  0
  1  2  1  0        0
  2  3  1  0        0
  3  4  1  0        0
  4  5  1  0        0
  5  6  1  0        0
  6  7  1  0        0
  7  8  1  0        0
  8  9  1  0        0
  9 10  1  0        0
 10 11  1  0        0
 11 12  1  0        0
 12 13  2  0        0
 12 14  1  0        0
 14 15  1  0        0
 15 16  1  0        0
 16 17  1  0        0
 17 18  1  0        0
 18 19  1  0        0
 15 20  1  0        0
 20 21  1  0        0
 21 22  1  0        0
 22 23  1  0        0
 15 24  1  0        0
 24 25  1  0        0
 25 26  2  0        0
 25 27  1  0        0
 27 28  1  0        0
 28 29  1  0        0
 29 30  1  0        0
 30 31  1  0        0
 31 32  1  0        0
 32 33  1  0        0
 33 34  1  0        0
 34 35  1  0        0
 35 36  1  0        0
 36 37  1  0        0
M  END
>  <CAS RN>
77587

>  <SMILES>
CCCCCCCCCCCC(=O)O[Sn](CCCC)(CCCC)OC(=O)CCCCCCCCCCC

>  <Measured or Estimated Log10(mmol/L)>
-2.98

$$$$

CDXL12

 10 12  0  0  0  0  0  0  0  0999 V2000
    0.0797    0.4125    0.0000 C   0  0  0  0  0  0  0  2  0  0  0  0
   -0.6348    0.8250    0.0000 C   0  0  0  0  0  0  0  2  0  0  0  0
   -1.3492    0.4125    0.0000 C   0  0  0  0  0  0  0  2  0  0  0  0
   -1.3492   -0.4125    0.0000 C   0  0  0  0  0  0  0  2  0  0  0  0
   -0.6348   -0.8250    0.0000 C   0  0  0  0  0  0  0  2  0  0  0  0
   -0.9713    0.0000    0.0000 C   0  0  0  0  0  0  0  2  0  0  0  0
    0.0797   -0.4125    0.0000 C   0  0  0  0  0  0  0  2  0  0  0  0
    0.8643   -0.6674    0.0000 C   0  0  0  0  0  0  0  2  0  0  0  0
    1.3492    0.0000    0.0000 C   0  0  0  0  0  0  0  2  0  0  0  0
    0.8643    0.6674    0.0000 C   0  0  0  0  0  0  0  2  0  0  0  0
  1  2  1  0        0
  2  3  1  0        0
  3  4  2  0        0
  4  5  1  0        0
  5  6  1  0        0
  2  6  1  0        0
  5  7  1  0        0
  1  7  1  0        0
  7  8  1  0        0
  8  9  2  0        0
  9 10  1  0        0
  1 10  1  0        0
M  END
>  <CAS RN>
77736

>  <SMILES>
C12C3\C=C/C(C3)C1\C=C/C2

>  <Measured or Estimated Log10(mmol/L)>
-1.100061866

$$$$

CDXL12

  9  8  0  0  0  0  0  0  0  0999 V2000
    1.4289    0.0000    0.0000 O   0  0  0  0  0  0  0  2  0  0  0  0
    0.7145   -0.4125    0.0000 C   0  0  0  0  0  0  0  2  0  0  0  0
    0.0000   -0.0000    0.0000 C   0  0  0  0  0  0  0  2  0  0  0  0
   -0.4125   -0.7145    0.0000 C   0  0  0  0  0  0  0  2  0  0  0  0
   -1.2375   -0.7145    0.0000 C   0  0  0  0  0  0  0  2  0  0  0  0
   -0.7145    0.4125    0.0000 C   0  0  0  0  0  0  0  2  0  0  0  0
   -1.4289   -0.0000    0.0000 O   0  0  0  0  0  0  0  2  0  0  0  0
    0.4125    0.7145    0.0000 C   0  0  0  0  0  0  0  2  0  0  0  0
    1.2375    0.7145    0.0000 O   0  0  0  0  0  0  0  2  0  0  0  0
  1  2  1  0        0
  2  3  1  0        0
  3  4  1  0        0
  4  5  1  0        0
  3  6  1  0        0
  6  7  1  0        0
  3  8  1  0        0
  8  9  1  0        0
M  END
>  <CAS RN>
77996

>  <SMILES>
OCC(CC)(CO)CO

>  <Measured or Estimated Log10(mmol/L)>
1.99

$$$$

CDXL12

 21 20  0  0  0  0  0  0  0  0999 V2000
   -2.1434   -1.2375    0.0000 O   0  0  0  0  0  0  0  2  0  0  0  0
   -2.1434   -0.4125    0.0000 N   0  0  0  0  0  0  0  2  0  0  0  0
   -2.8579   -0.0000    0.0000 O   0  0  0  0  0  0  0  2  0  0  0  0
   -1.4289   -0.0000    0.0000 O   0  0  0  0  0  0  0  2  0  0  0  0
   -0.7145   -0.4125    0.0000 C   0  0  0  0  0  0  0  2  0  0  0  0
   -0.0000    0.0000    0.0000 C   0  0  0  0  0  0  0  2  0  0  0  0
   -0.4125    0.7145    0.0000 C   0  0  0  0  0  0  0  2  0  0  0  0
   -1.2375    0.7145    0.0000 O   0  0  0  0  0  0  0  2  0  0  0  0
   -1.6500    1.4289    0.0000 N   0  0  0  0  0  0  0  2  0  0  0  0
   -1.2375    2.1434    0.0000 O   0  0  0  0  0  0  0  2  0  0  0  0
   -2.4750    1.4289    0.0000 O   0  0  0  0  0  0  0  2  0  0  0  0
    0.7145    0.4125    0.0000 C   0  0  0  0  0  0  0  2  0  0  0  0
    1.4289   -0.0000    0.0000 O   0  0  0  0  0  0  0  2  0  0  0  0
    2.1434    0.4125    0.0000 N   0  0  0  0  0  0  0  2  0  0  0  0
    2.1434    1.2375    0.0000 O   0  0  0  0  0  0  0  2  0  0  0  0
    2.8579   -0.0000    0.0000 O   0  0  0  0  0  0  0  2  0  0  0  0
    0.4125   -0.7145    0.0000 C   0  0  0  0  0  0  0  2  0  0  0  0
    1.2375   -0.7145    0.0000 O   0  0  0  0  0  0  0  2  0  0  0  0
    1.6500   -1.4289    0.0000 N   0  0  0  0  0  0  0  2  0  0  0  0
    1.2375   -2.1434    0.0000 O   0  0  0  0  0  0  0  2  0  0  0  0
    2.4750   -1.4289    0.0000 O   0  0  0  0  0  0  0  2  0  0  0  0
  1  2  2  0        0
  2  3  2  0        0
  2  4  1  0        0
  4  5  1  0        0
  5  6  1  0        0
  6  7  1  0        0
  7  8  1  0        0
  8  9  1  0        0
  9 10  2  0        0
  9 11  2  0        0
  6 12  1  0        0
 12 13  1  0        0
 13 14  1  0        0
 14 15  2  0        0
 14 16  2  0        0
  6 17  1  0        0
 17 18  1  0        0
 18 19  1  0        0
 19 20  2  0        0
 19 21  2  0        0
M  END
>  <CAS RN>
78115

>  <SMILES>
O=N(=O)OCC(CON(=O)=O)(CON(=O)=O)CON(=O)=O

>  <Measured or Estimated Log10(mmol/L)>
1.429546346

$$$$

CDXL12

  9  9  0  0  0  0  0  0  0  0999 V2000
    0.8250   -0.4678    0.0000 O   0  0  0  0  0  0  0  2  0  0  0  0
    0.1105   -0.0553    0.0000 C   0  0  0  0  0  0  0  2  0  0  0  0
    0.8250    0.3572    0.0000 C   0  0  0  0  0  0  0  2  0  0  0  0
    1.5395    0.7697    0.0000 C   0  0  0  0  0  0  0  2  0  0  0  0
   -0.3020    0.6592    0.0000 C   0  0  0  0  0  0  0  2  0  0  0  0
   -1.1270    0.6592    0.0000 C   0  0  0  0  0  0  0  2  0  0  0  0
   -1.5395   -0.0553    0.0000 C   0  0  0  0  0  0  0  2  0  0  0  0
   -1.1270   -0.7697    0.0000 C   0  0  0  0  0  0  0  2  0  0  0  0
   -0.3020   -0.7697    0.0000 C   0  0  0  0  0  0  0  2  0  0  0  0
  1  2  1  0        0
  2  3  1  0        0
  3  4  3  0        0
  2  5  1  0        0
  5  6  1  0        0
  6  7  1  0        0
  7  8  1  0        0
  8  9  1  0        0
  2  9  1  0        0
M  END
>  <CAS RN>
78273

>  <SMILES>
OC1(C#C)CCCCC1

>  <Measured or Estimated Log10(mmol/L)>
0.206967859

$$$$

CDXL12

 24 24  0  0  0  0  0  0  0  0999 V2000
    0.3572    2.4750    0.0000 S   0  0  0  0  0  0  0  2  0  0  0  0
    0.3572    1.6500    0.0000 P   0  0  0  0  0  0  0  2  0  0  0  0
    0.3572    0.8250    0.0000 S   0  0  0  0  0  0  0  2  0  0  0  0
    1.0717    0.4125    0.0000 C   0  0  0  0  0  0  0  2  0  0  0  0
    1.0717   -0.4125    0.0000 C   0  0  0  0  0  0  0  2  0  0  0  0
    0.3572   -0.8250    0.0000 S   0  0  0  0  0  0  0  2  0  0  0  0
   -0.3572   -0.4125    0.0000 P   0  0  0  0  0  0  0  2  0  0  0  0
   -0.3572    0.4125    0.0000 S   0  0  0  0  0  0  0  2  0  0  0  0
   -0.3572   -1.2375    0.0000 O   0  0  0  0  0  0  0  2  0  0  0  0
    0.3572   -1.6500    0.0000 C   0  0  0  0  0  0  0  2  0  0  0  0
    0.3572   -2.4750    0.0000 C   0  0  0  0  0  0  0  2  0  0  0  0
   -1.0717   -0.8250    0.0000 O   0  0  0  0  0  0  0  2  0  0  0  0
   -1.7862   -0.4125    0.0000 C   0  0  0  0  0  0  0  2  0  0  0  0
   -2.5006   -0.8250    0.0000 C   0  0  0  0  0  0  0  2  0  0  0  0
    1.7862   -0.8250    0.0000 O   0  0  0  0  0  0  0  2  0  0  0  0
    2.5006   -0.4125    0.0000 C   0  0  0  0  0  0  0  2  0  0  0  0
    2.5006    0.4125    0.0000 C   0  0  0  0  0  0  0  2  0  0  0  0
    1.7862    0.8250    0.0000 O   0  0  0  0  0  0  0  2  0  0  0  0
   -0.3572    1.2375    0.0000 O   0  0  0  0  0  0  0  2  0  0  0  0
   -1.0717    1.6500    0.0000 C   0  0  0  0  0  0  0  2  0  0  0  0
   -1.7862    1.2375    0.0000 C   0  0  0  0  0  0  0  2  0  0  0  0
    1.0717    1.2375    0.0000 O   0  0  0  0  0  0  0  2  0  0  0  0
    1.7862    1.6500    0.0000 C   0  0  0  0  0  0  0  2  0  0  0  0
    2.5006    1.2375    0.0000 C   0  0  0  0  0  0  0  2  0  0  0  0
  1  2  2  0        0
  2  3  1  0        0
  3  4  1  0        0
  4  5  1  0        0
  5  6  1  0        0
  6  7  1  0        0
  7  8  2  0        0
  7  9  1  0        0
  9 10  1  0        0
 10 11  1  0        0
  7 12  1  0        0
 12 13  1  0        0
 13 14  1  0        0
  5 15  1  0        0
 15 16  1  0        0
 16 17  1  0        0
 17 18  1  0        0
  4 18  1  0        0
  2 19  1  0        0
 19 20  1  0        0
 20 21  1  0        0
  2 22  1  0        0
 22 23  1  0        0
 23 24  1  0        0
M  END
>  <CAS RN>
78342

>  <SMILES>
S=P(SC1C(SP(=S)(OCC)OCC)OCCO1)(OCC)OCC

>  <Measured or Estimated Log10(mmol/L)>
-6.658941358

$$$$

CDXL12

 11 10  0  0  0  0  0  0  0  0999 V2000
    0.0000    1.4438    0.0000 O   0  0  0  0  0  0  0  2  0  0  0  0
    0.0000    0.6188    0.0000 P   0  0  0  0  0  0  0  2  0  0  0  0
   -0.7145    0.2062    0.0000 O   0  0  0  0  0  0  0  2  0  0  0  0
   -1.4289    0.6187    0.0000 C   0  0  0  0  0  0  0  2  0  0  0  0
   -2.1434    0.2062    0.0000 C   0  0  0  0  0  0  0  2  0  0  0  0
    0.7145    0.2062    0.0000 O   0  0  0  0  0  0  0  2  0  0  0  0
    1.4289    0.6187    0.0000 C   0  0  0  0  0  0  0  2  0  0  0  0
    2.1434    0.2062    0.0000 C   0  0  0  0  0  0  0  2  0  0  0  0
    0.0000   -0.2062    0.0000 O   0  0  0  0  0  0  0  2  0  0  0  0
    0.7145   -0.6188    0.0000 C   0  0  0  0  0  0  0  2  0  0  0  0
    0.7145   -1.4438    0.0000 C   0  0  0  0  0  0  0  2  0  0  0  0
  1  2  2  0        0
  2  3  1  0        0
  3  4  1  0        0
  4  5  1  0        0
  2  6  1  0        0
  6  7  1  0        0
  7  8  1  0        0
  2  9  1  0        0
  9 10  1  0        0
 10 11  1  0        0
M  END
>  <CAS RN>
78400

>  <SMILES>
O=P(OCC)(OCC)OCC

>  <Measured or Estimated Log10(mmol/L)>
0.72

$$$$

CDXL12

 10 10  0  0  0  0  0  0  0  0999 V2000
   -0.0553   -1.3885    0.0000 O   0  0  0  0  0  0  0  2  0  0  0  0
   -0.0553   -0.5635    0.0000 C   0  0  0  0  0  0  0  2  0  0  0  0
   -0.7697   -0.1510    0.0000 C   0  0  0  0  0  0  0  2  0  0  0  0
   -0.7697    0.6740    0.0000 C   0  0  0  0  0  0  0  2  0  0  0  0
   -0.0553    1.0865    0.0000 C   0  0  0  0  0  0  0  2  0  0  0  0
    0.6592    0.6740    0.0000 C   0  0  0  0  0  0  0  2  0  0  0  0
    1.0717    1.3885    0.0000 C   0  0  0  0  0  0  0  2  0  0  0  0
    1.4842    0.6740    0.0000 C   0  0  0  0  0  0  0  2  0  0  0  0
    0.6592   -0.1510    0.0000 C   0  0  0  0  0  0  0  2  0  0  0  0
   -1.4842    1.0865    0.0000 C   0  0  0  0  0  0  0  2  0  0  0  0
  1  2  2  0        0
  2  3  1  0        0
  3  4  2  0        0
  4  5  1  0        0
  5  6  1  0        0
  6  7  1  0        0
  6  8  1  0        0
  6  9  1  0        0
  2  9  1  0        0
  4 10  1  0        0
M  END
>  <CAS RN>
78591

>  <SMILES>
O=C1\C=C(/CC(C)(C)C1)\C

>  <Measured or Estimated Log10(mmol/L)>
-0.061358221

$$$$

CDXL12

 10  9  0  0  0  0  0  0  0  0999 V2000
    0.7145    1.0313    0.0000 C   0  0  0  0  0  0  0  2  0  0  0  0
    0.0000    0.6188    0.0000 S   0  0  0  0  0  0  0  2  0  0  0  0
    0.0000   -0.2062    0.0000 I   0  0  0  0  0  0  0  2  0  0  0  0
   -0.7145   -0.6188    0.0000 O   0  0  0  0  0  0  0  2  0  0  0  0
   -1.4289   -0.2063    0.0000 C   0  0  0  0  0  0  0  2  0  0  0  0
   -2.1434   -0.6188    0.0000 C   0  0  0  0  0  0  0  2  0  0  0  0
    0.7145   -0.6188    0.0000 O   0  0  0  0  0  0  0  2  0  0  0  0
    1.4289   -0.2063    0.0000 C   0  0  0  0  0  0  0  2  0  0  0  0
    2.1434   -0.6188    0.0000 C   0  0  0  0  0  0  0  2  0  0  0  0
    0.0000   -1.0313    0.0000 C   0  0  0  0  0  0  0  2  0  0  0  0
  1  2  1  0        0
  2  3  1  0        0
  3  4  1  0        0
  4  5  1  0        0
  5  6  1  0        0
  3  7  1  0        0
  7  8  1  0        0
  8  9  1  0        0
  3 10  1  0        0
M  END
>  <CAS RN>
78626

>  <SMILES>
CSI(OCC)(OCC)C

>  <Measured or Estimated Log10(mmol/L)>
-1.84

$$$$

CDXL12

  5  4  0  0  0  0  0  0  0  0999 V2000
   -1.0717   -0.2062    0.0000 O   0  0  0  0  0  0  0  2  0  0  0  0
   -0.3572   -0.6187    0.0000 C   0  0  0  0  0  0  0  2  0  0  0  0
    0.3572   -0.2062    0.0000 C   0  0  0  0  0  0  0  2  0  0  0  0
    0.3572    0.6187    0.0000 C   0  0  0  0  0  0  0  2  0  0  0  0
    1.0717   -0.6187    0.0000 C   0  0  0  0  0  0  0  2  0  0  0  0
  1  2  1  0        0
  2  3  1  0        0
  3  4  1  0        0
  3  5  1  0        0
M  END
>  <CAS RN>
78831

>  <SMILES>
OCC(C)C

>  <Measured or Estimated Log10(mmol/L)>
1.17536999

$$$$

CDXL12

  5  4  0  0  0  0  0  0  0  0999 V2000
   -1.0717   -0.2062    0.0000 Cl  0  0  0  0  0  0  0  2  0  0  0  0
   -0.3572   -0.6187    0.0000 C   0  0  0  0  0  0  0  2  0  0  0  0
    0.3572   -0.2062    0.0000 C   0  0  0  0  0  0  0  2  0  0  0  0
    0.3572    0.6187    0.0000 Cl  0  0  0  0  0  0  0  2  0  0  0  0
    1.0717   -0.6187    0.0000 C   0  0  0  0  0  0  0  2  0  0  0  0
  1  2  1  0        0
  2  3  1  0        0
  3  4  1  0        0
  3  5  1  0        0
M  END
>  <CAS RN>
78875

>  <SMILES>
ClCC(Cl)C

>  <Measured or Estimated Log10(mmol/L)>
-0.337025134

$$$$

CDXL12

  5  4  0  0  0  0  0  0  0  0999 V2000
    0.3572    0.6187    0.0000 O   0  0  0  0  0  0  0  2  0  0  0  0
    0.3572   -0.2062    0.0000 C   0  0  0  0  0  0  0  2  0  0  0  0
   -0.3572   -0.6187    0.0000 C   0  0  0  0  0  0  0  2  0  0  0  0
   -1.0717   -0.2062    0.0000 C   0  0  0  0  0  0  0  2  0  0  0  0
    1.0717   -0.6187    0.0000 C   0  0  0  0  0  0  0  2  0  0  0  0
  1  2  1  0        0
  2  3  1  0        0
  3  4  1  0        0
  2  5  1  0        0
M  END
>  <CAS RN>
78922

>  <SMILES>
OC(CC)C

>  <Measured or Estimated Log10(mmol/L)>
1.466727

$$$$

CDXL12

  5  4  0  0  0  0  0  0  0  0999 V2000
    0.3572    0.6187    0.0000 O   0  0  0  0  0  0  0  2  0  0  0  0
    0.3572   -0.2062    0.0000 C   0  0  0  0  0  0  0  2  0  0  0  0
   -0.3572   -0.6187    0.0000 C   0  0  0  0  0  0  0  2  0  0  0  0
   -1.0717   -0.2062    0.0000 C   0  0  0  0  0  0  0  2  0  0  0  0
    1.0717   -0.6187    0.0000 C   0  0  0  0  0  0  0  2  0  0  0  0
  1  2  2  0        0
  2  3  1  0        0
  3  4  1  0        0
  2  5  1  0        0
M  END
>  <CAS RN>
78933

>  <SMILES>
O=C(CC)C

>  <Measured or Estimated Log10(mmol/L)>
2.09

$$$$

CDXL12

  5  4  0  0  0  0  0  0  0  0999 V2000
   -1.0717   -0.2062    0.0000 C   0  0  0  0  0  0  0  2  0  0  0  0
   -0.3572   -0.6187    0.0000 C   0  0  0  0  0  0  0  2  0  0  0  0
    0.3572   -0.2062    0.0000 C   0  0  0  0  0  0  0  2  0  0  0  0
    0.3572    0.6187    0.0000 Cl  0  0  0  0  0  0  0  2  0  0  0  0
    1.0717   -0.6187    0.0000 Cl  0  0  0  0  0  0  0  2  0  0  0  0
  1  2  1  0        0
  2  3  1  0        0
  3  4  1  0        0
  3  5  1  0        0
M  END
>  <CAS RN>
78999

>  <SMILES>
CCC(Cl)Cl

>  <Measured or Estimated Log10(mmol/L)>
-0.691300642

$$$$

CDXL12

  5  4  0  0  0  0  0  0  0  0999 V2000
   -1.0717   -0.2062    0.0000 Cl  0  0  0  0  0  0  0  2  0  0  0  0
   -0.3572   -0.6187    0.0000 C   0  0  0  0  0  0  0  2  0  0  0  0
    0.3572   -0.2062    0.0000 C   0  0  0  0  0  0  0  2  0  0  0  0
    0.3572    0.6187    0.0000 Cl  0  0  0  0  0  0  0  2  0  0  0  0
    1.0717   -0.6187    0.0000 Cl  0  0  0  0  0  0  0  2  0  0  0  0
  1  2  1  0        0
  2  3  1  0        0
  3  4  1  0        0
  3  5  1  0        0
M  END
>  <CAS RN>
79005

>  <SMILES>
ClCC(Cl)Cl

>  <Measured or Estimated Log10(mmol/L)>
-0.491703652

$$$$

CDXL12

  5  4  0  0  0  0  0  0  0  0999 V2000
   -0.3572   -0.2062    0.0000 C   0  0  0  0  0  0  0  2  0  0  0  0
    0.3572   -0.6188    0.0000 C   0  0  0  0  0  0  0  2  0  0  0  0
    1.0717   -0.2062    0.0000 Cl  0  0  0  0  0  0  0  2  0  0  0  0
   -1.0717   -0.6187    0.0000 Cl  0  0  0  0  0  0  0  2  0  0  0  0
   -0.3572    0.6188    0.0000 Cl  0  0  0  0  0  0  0  2  0  0  0  0
  1  2  2  0        0
  2  3  1  0        0
  1  4  1  0        0
  1  5  1  0        0
M  END
>  <CAS RN>
79016

>  <SMILES>
C(=CCl)(Cl)Cl

>  <Measured or Estimated Log10(mmol/L)>
-0.37037098

$$$$

CDXL12

  5  4  0  0  0  0  0  0  0  0999 V2000
    0.3572    0.6187    0.0000 O   0  0  0  0  0  0  0  2  0  0  0  0
    0.3572   -0.2062    0.0000 C   0  0  0  0  0  0  0  2  0  0  0  0
    1.0717   -0.6187    0.0000 N   0  0  0  0  0  0  0  2  0  0  0  0
   -0.3572   -0.6187    0.0000 C   0  0  0  0  0  0  0  2  0  0  0  0
   -1.0717   -0.2062    0.0000 C   0  0  0  0  0  0  0  2  0  0  0  0
  1  2  2  0        0
  2  3  1  0        0
  2  4  1  0        0
  4  5  2  0        0
M  END
>  <CAS RN>
79061

>  <SMILES>
O=C(N)C=C

>  <Measured or Estimated Log10(mmol/L)>
0.352378674

$$$$

CDXL12

  5  4  0  0  0  0  0  0  0  0999 V2000
    0.3572    0.6187    0.0000 O   0  0  0  0  0  0  0  2  0  0  0  0
    0.3572   -0.2062    0.0000 C   0  0  0  0  0  0  0  2  0  0  0  0
    1.0717   -0.6187    0.0000 O   0  0  0  0  0  0  0  2  0  0  0  0
   -0.3572   -0.6187    0.0000 C   0  0  0  0  0  0  0  2  0  0  0  0
   -1.0717   -0.2062    0.0000 Br  0  0  0  0  0  0  0  2  0  0  0  0
  1  2  2  0        0
  2  3  1  0        0
  2  4  1  0        0
  4  5  1  0        0
M  END
>  <CAS RN>
79083

>  <SMILES>
O=C(O)CBr

>  <Measured or Estimated Log10(mmol/L)>
-0.636935205

$$$$

CDXL12

  5  4  0  0  0  0  0  0  0  0999 V2000
   -1.0717   -0.2062    0.0000 C   0  0  0  0  0  0  0  2  0  0  0  0
   -0.3572   -0.6187    0.0000 C   0  0  0  0  0  0  0  2  0  0  0  0
    0.3572   -0.2062    0.0000 C   0  0  0  0  0  0  0  2  0  0  0  0
    0.3572    0.6187    0.0000 O   0  0  0  0  0  0  0  2  0  0  0  0
    1.0717   -0.6187    0.0000 O   0  0  0  0  0  0  0  2  0  0  0  0
  1  2  1  0        0
  2  3  1  0        0
  3  4  2  0        0
  3  5  1  0        0
M  END
>  <CAS RN>
79094

>  <SMILES>
CCC(=O)O

>  <Measured or Estimated Log10(mmol/L)>
-0.170725107

$$$$

CDXL12

  5  4  0  0  0  0  0  0  0  0999 V2000
    0.3572    0.6187    0.0000 O   0  0  0  0  0  0  0  2  0  0  0  0
    0.3572   -0.2062    0.0000 C   0  0  0  0  0  0  0  2  0  0  0  0
    1.0717   -0.6187    0.0000 O   0  0  0  0  0  0  0  2  0  0  0  0
   -0.3572   -0.6187    0.0000 C   0  0  0  0  0  0  0  2  0  0  0  0
   -1.0717   -0.2062    0.0000 C   0  0  0  0  0  0  0  2  0  0  0  0
  1  2  2  0        0
  2  3  1  0        0
  2  4  1  0        0
  4  5  2  0        0
M  END
>  <CAS RN>
79107

>  <SMILES>
O=C(O)C=C

>  <Measured or Estimated Log10(mmol/L)>
0.120011279

$$$$

CDXL12

  5  4  0  0  0  0  0  0  0  0999 V2000
    0.3572    0.6187    0.0000 O   0  0  0  0  0  0  0  2  0  0  0  0
    0.3572   -0.2062    0.0000 C   0  0  0  0  0  0  0  2  0  0  0  0
    1.0717   -0.6187    0.0000 O   0  0  0  0  0  0  0  2  0  0  0  0
   -0.3572   -0.6187    0.0000 C   0  0  0  0  0  0  0  2  0  0  0  0
   -1.0717   -0.2062    0.0000 Cl  0  0  0  0  0  0  0  2  0  0  0  0
  1  2  2  0        0
  2  3  1  0        0
  2  4  1  0        0
  4  5  1  0        0
M  END
>  <CAS RN>
79118

>  <SMILES>
O=C(O)CCl

>  <Measured or Estimated Log10(mmol/L)>
-0.287897938

$$$$

CDXL12

  6  5  0  0  0  0  0  0  0  0999 V2000
    0.3572   -0.2062    0.0000 C   0  0  0  0  0  0  0  2  0  0  0  0
   -0.3572    0.2062    0.0000 C   0  0  0  0  0  0  0  2  0  0  0  0
   -1.0717   -0.2062    0.0000 Cl  0  0  0  0  0  0  0  2  0  0  0  0
   -0.3572    1.0313    0.0000 Cl  0  0  0  0  0  0  0  2  0  0  0  0
    1.0717    0.2062    0.0000 Cl  0  0  0  0  0  0  0  2  0  0  0  0
    0.3572   -1.0313    0.0000 Cl  0  0  0  0  0  0  0  2  0  0  0  0
  1  2  1  0        0
  2  3  1  0        0
  2  4  1  0        0
  1  5  1  0        0
  1  6  1  0        0
M  END
>  <CAS RN>
79345

>  <SMILES>
C(C(Cl)Cl)(Cl)Cl

>  <Measured or Estimated Log10(mmol/L)>
-0.46904649

$$$$

CDXL12

 10 11  0  0  0  0  0  0  0  0999 V2000
    0.3020   -0.5635    0.0000 C   0  0  0  0  0  0  0  2  0  0  0  0
   -0.4125   -0.9760    0.0000 C   0  0  0  0  0  0  0  2  0  0  0  0
   -0.7490   -0.1510    0.0000 C   0  0  0  0  0  0  0  2  0  0  0  0
   -0.4125    0.6740    0.0000 C   0  0  0  0  0  0  0  2  0  0  0  0
   -1.1270    0.2615    0.0000 C   0  0  0  0  0  0  0  2  0  0  0  0
   -1.1270   -0.5635    0.0000 C   0  0  0  0  0  0  0  2  0  0  0  0
    0.3020    0.2615    0.0000 C   0  0  0  0  0  0  0  2  0  0  0  0
    0.7145    0.9760    0.0000 C   0  0  0  0  0  0  0  2  0  0  0  0
    1.1270    0.2615    0.0000 C   0  0  0  0  0  0  0  2  0  0  0  0
    1.0164   -0.9760    0.0000 C   0  0  0  0  0  0  0  2  0  0  0  0
  1  2  1  0        0
  2  3  1  0        0
  3  4  1  0        0
  4  5  1  0        0
  5  6  1  0        0
  2  6  1  0        0
  4  7  1  0        0
  1  7  1  0        0
  7  8  1  0        0
  7  9  1  0        0
  1 10  2  0        0
M  END
>  <CAS RN>
79925

>  <SMILES>
C1(C2CC(CC2)C1(C)C)=C

>  <Measured or Estimated Log10(mmol/L)>
-0.791875579

$$$$

CDXL12

 16 17  0  0  0  0  0  0  0  0999 V2000
    0.3572   -0.0000    0.0000 S   0  0  0  0  0  0  0  2  0  0  0  0
    0.7697   -0.7145    0.0000 O   0  0  0  0  0  0  0  2  0  0  0  0
   -0.0553    0.7145    0.0000 O   0  0  0  0  0  0  0  2  0  0  0  0
    1.0717    0.4125    0.0000 C   0  0  0  0  0  0  0  2  0  0  0  0
    1.0717    1.2375    0.0000 C   0  0  0  0  0  0  0  2  0  0  0  0
    1.7862    1.6500    0.0000 C   0  0  0  0  0  0  0  2  0  0  0  0
    2.5006    1.2375    0.0000 C   0  0  0  0  0  0  0  2  0  0  0  0
    2.5006    0.4125    0.0000 C   0  0  0  0  0  0  0  2  0  0  0  0
    1.7862   -0.0000    0.0000 C   0  0  0  0  0  0  0  2  0  0  0  0
   -0.3572   -0.4125    0.0000 C   0  0  0  0  0  0  0  2  0  0  0  0
   -0.3572   -1.2375    0.0000 C   0  0  0  0  0  0  0  2  0  0  0  0
   -1.0717   -1.6500    0.0000 C   0  0  0  0  0  0  0  2  0  0  0  0
   -1.7862   -1.2375    0.0000 C   0  0  0  0  0  0  0  2  0  0  0  0
   -2.5006   -1.6500    0.0000 Cl  0  0  0  0  0  0  0  2  0  0  0  0
   -1.7862   -0.4125    0.0000 C   0  0  0  0  0  0  0  2  0  0  0  0
   -1.0717   -0.0000    0.0000 C   0  0  0  0  0  0  0  2  0  0  0  0
  1  2  2  0        0
  1  3  2  0        0
  1  4  1  0        0
  4  5  4  0        0
  5  6  4  0        0
  6  7  4  0        0
  7  8  4  0        0
  8  9  4  0        0
  4  9  4  0        0
  1 10  1  0        0
 10 11  4  0        0
 11 12  4  0        0
 12 13  4  0        0
 13 14  1  0        0
 13 15  4  0        0
 15 16  4  0        0
 10 16  4  0        0
M  END
>  <CAS RN>
80002

>  <SMILES>
S(=O)(=O)(c1ccccc1)c1ccc(Cl)cc1

>  <Measured or Estimated Log10(mmol/L)>
-2.450958599

$$$$

CDXL12

 17 18  0  0  0  0  0  0  0  0999 V2000
   -0.4125    1.1822    0.0000 C   0  0  0  0  0  0  0  2  0  0  0  0
   -0.0000    0.4678    0.0000 C   0  0  0  0  0  0  0  2  0  0  0  0
    0.4125    1.1822    0.0000 O   0  0  0  0  0  0  0  2  0  0  0  0
   -0.7145    0.0553    0.0000 C   0  0  0  0  0  0  0  2  0  0  0  0
   -0.7145   -0.7697    0.0000 C   0  0  0  0  0  0  0  2  0  0  0  0
   -1.4289   -1.1822    0.0000 C   0  0  0  0  0  0  0  2  0  0  0  0
   -2.1434   -0.7697    0.0000 C   0  0  0  0  0  0  0  2  0  0  0  0
   -2.8579   -1.1822    0.0000 Cl  0  0  0  0  0  0  0  2  0  0  0  0
   -2.1434    0.0553    0.0000 C   0  0  0  0  0  0  0  2  0  0  0  0
   -1.4289    0.4678    0.0000 C   0  0  0  0  0  0  0  2  0  0  0  0
    0.7145    0.0553    0.0000 C   0  0  0  0  0  0  0  2  0  0  0  0
    1.4289    0.4678    0.0000 C   0  0  0  0  0  0  0  2  0  0  0  0
    2.1434    0.0553    0.0000 C   0  0  0  0  0  0  0  2  0  0  0  0
    2.1434   -0.7697    0.0000 C   0  0  0  0  0  0  0  2  0  0  0  0
    2.8579   -1.1822    0.0000 Cl  0  0  0  0  0  0  0  2  0  0  0  0
    1.4289   -1.1822    0.0000 C   0  0  0  0  0  0  0  2  0  0  0  0
    0.7145   -0.7697    0.0000 C   0  0  0  0  0  0  0  2  0  0  0  0
  1  2  1  0        0
  2  3  1  0        0
  2  4  1  0        0
  4  5  4  0        0
  5  6  4  0        0
  6  7  4  0        0
  7  8  1  0        0
  7  9  4  0        0
  9 10  4  0        0
  4 10  4  0        0
  2 11  1  0        0
 11 12  4  0        0
 12 13  4  0        0
 13 14  4  0        0
 14 15  1  0        0
 14 16  4  0        0
 16 17  4  0        0
 11 17  4  0        0
M  END
>  <CAS RN>
80068

>  <SMILES>
CC(O)(c1ccc(Cl)cc1)c1ccc(Cl)cc1

>  <Measured or Estimated Log10(mmol/L)>
-3.367001413

$$$$

CDXL12

 10 11  0  0  0  0  0  0  0  0999 V2000
    1.0717    0.9760    0.0000 C   0  0  0  0  0  0  0  2  0  0  0  0
    0.6592    0.2615    0.0000 C   0  0  0  0  0  0  0  2  0  0  0  0
    1.4842    0.2615    0.0000 C   0  0  0  0  0  0  0  2  0  0  0  0
    0.6592   -0.5635    0.0000 C   0  0  0  0  0  0  0  2  0  0  0  0
   -0.0553   -0.9760    0.0000 C   0  0  0  0  0  0  0  2  0  0  0  0
   -0.7697   -0.5635    0.0000 C   0  0  0  0  0  0  0  2  0  0  0  0
   -0.7697    0.2615    0.0000 C   0  0  0  0  0  0  0  2  0  0  0  0
   -1.4842    0.6740    0.0000 C   0  0  0  0  0  0  0  2  0  0  0  0
   -0.0553    0.6740    0.0000 C   0  0  0  0  0  0  0  2  0  0  0  0
    0.1270   -0.0458    0.0000 C   0  0  0  0  0  0  0  2  0  0  0  0
  1  2  1  0        0
  2  3  1  0        0
  2  4  1  0        0
  4  5  1  0        0
  5  6  1  0        0
  6  7  2  0        0
  7  8  1  0        0
  7  9  1  0        0
  2  9  1  0        0
  9 10  1  0        0
  4 10  1  0        0
M  END
>  <CAS RN>
80568

>  <SMILES>
CC1(C)C2C/C=C(/C)\C1C2

>  <Measured or Estimated Log10(mmol/L)>
-0.521514403

$$$$

CDXL12

  7  6  0  0  0  0  0  0  0  0999 V2000
    0.0000    1.0312    0.0000 O   0  0  0  0  0  0  0  2  0  0  0  0
    0.0000    0.2062    0.0000 C   0  0  0  0  0  0  0  2  0  0  0  0
    0.7145   -0.2063    0.0000 O   0  0  0  0  0  0  0  2  0  0  0  0
    1.4289    0.2062    0.0000 C   0  0  0  0  0  0  0  2  0  0  0  0
   -0.7145   -0.2063    0.0000 C   0  0  0  0  0  0  0  2  0  0  0  0
   -0.7145   -1.0312    0.0000 C   0  0  0  0  0  0  0  2  0  0  0  0
   -1.4289    0.2062    0.0000 C   0  0  0  0  0  0  0  2  0  0  0  0
  1  2  2  0        0
  2  3  1  0        0
  3  4  1  0        0
  2  5  1  0        0
  5  6  2  0        0
  5  7  1  0        0
M  END
>  <CAS RN>
80626

>  <SMILES>
O=C(OC)C(=C)C

>  <Measured or Estimated Log10(mmol/L)>
0.9900244

$$$$

CDXL12

 21 21  0  0  0  0  0  0  0  0999 V2000
   -1.4289    1.8563    0.0000 O   0  0  0  0  0  0  0  2  0  0  0  0
   -1.4289    1.0313    0.0000 N   0  0  0  0  0  0  0  2  0  0  0  0
   -2.1434    0.6188    0.0000 O   0  0  0  0  0  0  0  2  0  0  0  0
   -0.7145    0.6188    0.0000 C   0  0  0  0  0  0  0  2  0  0  0  0
    0.0000    1.0313    0.0000 C   0  0  0  0  0  0  0  2  0  0  0  0
    0.7145    0.6187    0.0000 C   0  0  0  0  0  0  0  2  0  0  0  0
    0.7145   -0.2063    0.0000 C   0  0  0  0  0  0  0  2  0  0  0  0
    0.0000   -0.6188    0.0000 C   0  0  0  0  0  0  0  2  0  0  0  0
   -0.7145   -0.2062    0.0000 C   0  0  0  0  0  0  0  2  0  0  0  0
   -1.4289   -0.6188    0.0000 C   0  0  0  0  0  0  0  2  0  0  0  0
    0.0000   -1.4438    0.0000 N   0  0  0  0  0  0  0  2  0  0  0  0
    0.7145   -1.8563    0.0000 O   0  0  0  0  0  0  0  2  0  0  0  0
   -0.7145   -1.8562    0.0000 O   0  0  0  0  0  0  0  2  0  0  0  0
    1.4289   -0.6188    0.0000 C   0  0  0  0  0  0  0  2  0  0  0  0
    2.1434   -1.0313    0.0000 C   0  0  0  0  0  0  0  2  0  0  0  0
    1.4289   -1.4438    0.0000 C   0  0  0  0  0  0  0  2  0  0  0  0
    2.1434   -0.2063    0.0000 C   0  0  0  0  0  0  0  2  0  0  0  0
    1.4289    1.0312    0.0000 N   0  0  0  0  0  0  0  2  0  0  0  0
    1.4289    1.8562    0.0000 O   0  0  0  0  0  0  0  2  0  0  0  0
    2.1434    0.6187    0.0000 O   0  0  0  0  0  0  0  2  0  0  0  0
    0.0000    1.8563    0.0000 C   0  0  0  0  0  0  0  2  0  0  0  0
  1  2  2  0        0
  2  3  2  0        0
  2  4  1  0        0
  4  5  4  0        0
  5  6  4  0        0
  6  7  4  0        0
  7  8  4  0        0
  8  9  4  0        0
  4  9  4  0        0
  9 10  1  0        0
  8 11  1  0        0
 11 12  2  0        0
 11 13  2  0        0
  7 14  1  0        0
 14 15  1  0        0
 14 16  1  0        0
 14 17  1  0        0
  6 18  1  0        0
 18 19  2  0        0
 18 20  2  0        0
  5 21  1  0        0
M  END
>  <CAS RN>
81152

>  <SMILES>
O=N(=O)c1c(c(c(c(c1C)N(=O)=O)C(C)(C)C)N(=O)=O)C

>  <Measured or Estimated Log10(mmol/L)>
-2.782950611

$$$$

CDXL12

 11 11  0  0  0  0  0  0  0  0999 V2000
    0.0000   -0.8250    0.0000 C   0  0  0  0  0  0  0  2  0  0  0  0
    0.0000   -0.0000    0.0000 C   0  0  0  0  0  0  0  2  0  0  0  0
    0.7145    0.4125    0.0000 C   0  0  0  0  0  0  0  2  0  0  0  0
    1.4289   -0.0000    0.0000 C   0  0  0  0  0  0  0  2  0  0  0  0
    1.4289   -0.8250    0.0000 C   0  0  0  0  0  0  0  2  0  0  0  0
    0.7145   -1.2375    0.0000 C   0  0  0  0  0  0  0  2  0  0  0  0
    0.7145    1.2375    0.0000 Cl  0  0  0  0  0  0  0  2  0  0  0  0
   -0.7145    0.4125    0.0000 C   0  0  0  0  0  0  0  2  0  0  0  0
   -0.7145    1.2375    0.0000 Cl  0  0  0  0  0  0  0  2  0  0  0  0
   -1.4289    0.0000    0.0000 Cl  0  0  0  0  0  0  0  2  0  0  0  0
   -0.7145   -1.2375    0.0000 Cl  0  0  0  0  0  0  0  2  0  0  0  0
  1  2  4  0        0
  2  3  4  0        0
  3  4  4  0        0
  4  5  4  0        0
  5  6  4  0        0
  1  6  4  0        0
  3  7  1  0        0
  2  8  1  0        0
  8  9  1  0        0
  8 10  1  0        0
  1 11  1  0        0
M  END
>  <CAS RN>
81196

>  <SMILES>
c1(c(c(ccc1)Cl)C(Cl)Cl)Cl

>  <Measured or Estimated Log10(mmol/L)>
-2.770514021

$$$$

CDXL12

 23 25  0  0  0  0  0  0  0  0999 V2000
   -2.8579    1.6500    0.0000 C   0  0  0  0  0  0  0  2  0  0  0  0
   -2.8579    0.8250    0.0000 C   0  0  0  0  0  0  0  2  0  0  0  0
   -2.1434    0.4125    0.0000 C   0  0  0  0  0  0  0  2  0  0  0  0
   -1.4289    0.8250    0.0000 C   0  0  0  0  0  0  0  2  0  0  0  0
   -0.7145    0.4125    0.0000 C   0  0  0  0  0  0  0  2  0  0  0  0
   -0.7145   -0.4125    0.0000 O   0  0  0  0  0  0  0  2  0  0  0  0
   -0.0000    0.8250    0.0000 C   0  0  0  0  0  0  0  2  0  0  0  0
    0.7145    0.4125    0.0000 C   0  0  0  0  0  0  0  2  0  0  0  0
    0.7145   -0.4125    0.0000 C   0  0  0  0  0  0  0  2  0  0  0  0
    1.4289   -0.8250    0.0000 C   0  0  0  0  0  0  0  2  0  0  0  0
    1.4289   -1.6500    0.0000 C   0  0  0  0  0  0  0  2  0  0  0  0
    0.7145   -2.0625    0.0000 C   0  0  0  0  0  0  0  2  0  0  0  0
   -0.0000   -1.6500    0.0000 C   0  0  0  0  0  0  0  2  0  0  0  0
   -0.0000   -0.8250    0.0000 C   0  0  0  0  0  0  0  2  0  0  0  0
    1.4289    0.8250    0.0000 C   0  0  0  0  0  0  0  2  0  0  0  0
    2.1434    0.4125    0.0000 C   0  0  0  0  0  0  0  2  0  0  0  0
    2.1434   -0.4125    0.0000 O   0  0  0  0  0  0  0  2  0  0  0  0
    2.8579    0.8250    0.0000 C   0  0  0  0  0  0  0  2  0  0  0  0
   -0.0000    1.6500    0.0000 C   0  0  0  0  0  0  0  2  0  0  0  0
    0.7145    2.0625    0.0000 O   0  0  0  0  0  0  0  2  0  0  0  0
   -0.7145    2.0625    0.0000 O   0  0  0  0  0  0  0  2  0  0  0  0
   -1.4289    1.6500    0.0000 C   0  0  0  0  0  0  0  2  0  0  0  0
   -2.1434    2.0625    0.0000 C   0  0  0  0  0  0  0  2  0  0  0  0
  1  2  4  0        0
  2  3  4  0        0
  3  4  4  0        0
  4  5  1  0        0
  5  6  1  0        0
  5  7  2  0        0
  7  8  1  0        0
  8  9  1  0        0
  9 10  4  0        0
 10 11  4  0        0
 11 12  4  0        0
 12 13  4  0        0
 13 14  4  0        0
  9 14  4  0        0
  8 15  1  0        0
 15 16  1  0        0
 16 17  2  0        0
 16 18  1  0        0
  7 19  1  0        0
 19 20  2  0        0
 19 21  1  0        0
 21 22  1  0        0
  4 22  4  0        0
 22 23  4  0        0
  1 23  4  0        0
M  END
>  <CAS RN>
81812

>  <SMILES>
c1ccc2\C(\O)=C(\C(c3ccccc3)CC(=O)C)/C(=O)Oc2c1

>  <Measured or Estimated Log10(mmol/L)>
-0.0981011

$$$$

CDXL12

 34 37  0  0  0  0  0  0  0  0999 V2000
   -2.5006   -2.9288    0.0000 C   0  0  0  0  0  0  0  2  0  0  0  0
   -3.2151   -2.5162    0.0000 C   0  0  0  0  0  0  0  2  0  0  0  0
   -3.2151   -1.6912    0.0000 N   0  0  0  0  0  0  0  2  0  0  0  0
   -3.9296   -1.2788    0.0000 C   0  0  0  0  0  0  0  2  0  0  0  0
   -3.9296   -0.4538    0.0000 C   0  0  0  0  0  0  0  2  0  0  0  0
   -2.5006   -1.2788    0.0000 C   0  0  0  0  0  0  0  2  0  0  0  0
   -2.5006   -0.4538    0.0000 C   0  0  0  0  0  0  0  2  0  0  0  0
   -1.7862   -0.0413    0.0000 C   0  0  0  0  0  0  0  2  0  0  0  0
   -1.0717   -0.4538    0.0000 C   0  0  0  0  0  0  0  2  0  0  0  0
   -0.3572   -0.0413    0.0000 C   0  0  0  0  0  0  0  2  0  0  0  0
   -0.3572    1.2788    0.0000 C   0  0  0  0  0  0  0  2  0  0  0  0
   -1.0717    1.6912    0.0000 C   0  0  0  0  0  0  0  2  0  0  0  0
   -1.0717    2.5162    0.0000 C   0  0  0  0  0  0  0  2  0  0  0  0
   -0.3572    2.9288    0.0000 C   0  0  0  0  0  0  0  2  0  0  0  0
    0.3572    2.5162    0.0000 C   0  0  0  0  0  0  0  2  0  0  0  0
    0.3572    1.6912    0.0000 C   0  0  0  0  0  0  0  2  0  0  0  0
    1.0717    1.2788    0.0000 C   0  0  0  0  0  0  0  2  0  0  0  0
    1.7862    1.6912    0.0000 O   0  0  0  0  0  0  0  2  0  0  0  0
    1.0717    0.4537    0.0000 O   0  0  0  0  0  0  0  2  0  0  0  0
    0.3572   -0.4537    0.0000 C   0  0  0  0  0  0  0  2  0  0  0  0
    1.0717   -0.0413    0.0000 C   0  0  0  0  0  0  0  2  0  0  0  0
    1.7862   -0.4538    0.0000 C   0  0  0  0  0  0  0  2  0  0  0  0
    1.7862   -1.2788    0.0000 C   0  0  0  0  0  0  0  2  0  0  0  0
    1.0717   -1.6912    0.0000 C   0  0  0  0  0  0  0  2  0  0  0  0
    0.3572   -1.2787    0.0000 C   0  0  0  0  0  0  0  2  0  0  0  0
   -0.3572   -1.6912    0.0000 O   0  0  0  0  0  0  0  2  0  0  0  0
   -1.0717   -1.2788    0.0000 C   0  0  0  0  0  0  0  2  0  0  0  0
   -1.7862   -1.6912    0.0000 C   0  0  0  0  0  0  0  2  0  0  0  0
    2.5006   -1.6912    0.0000 N   0  0  0  0  0  0  0  2  0  0  0  0
    3.2151   -1.2788    0.0000 Cl  0  0  0  0  0  0  0  2  0  0  0  0
    3.2151   -2.1038    0.0000 C   0  0  0  0  0  0  0  2  0  0  0  0
    3.9296   -1.6912    0.0000 C   0  0  0  0  0  0  0  2  0  0  0  0
    2.5006   -2.5162    0.0000 C   0  0  0  0  0  0  0  2  0  0  0  0
    1.7862   -2.9288    0.0000 C   0  0  0  0  0  0  0  2  0  0  0  0
  1  2  1  0        0
  2  3  1  0        0
  3  4  1  0        0
  4  5  1  0        0
  3  6  1  0        0
  6  7  4  0        0
  7  8  4  0        0
  8  9  4  0        0
  9 10  1  0        0
 10 11  1  0        0
 11 12  4  0        0
 12 13  4  0        0
 13 14  4  0        0
 14 15  4  0        0
 15 16  4  0        0
 11 16  4  0        0
 16 17  1  0        0
 17 18  1  0        0
 17 19  2  0        0
 10 20  1  0        0
 20 21  1  0        0
 21 22  1  0        0
 22 23  1  0        0
 23 24  1  0        0
 24 25  1  0        0
 20 25  1  0        0
 25 26  1  0        0
 26 27  1  0        0
  9 27  4  0        0
 27 28  4  0        0
  6 28  4  0        0
 23 29  2  0        0
 29 30  1  0        0
 29 31  1  0        0
 31 32  1  0        0
 29 33  1  0        0
 33 34  1  0        0
M  END
>  <CAS RN>
81889

>  <SMILES>
CCN(CC)c1ccc2C(c3ccccc3C(O)=O)C3CCC(CC3Oc2c1)=N(Cl)(CC)CC

>  <Measured or Estimated Log10(mmol/L)>
-1.325967143

$$$$

CDXL12

 17 17  0  0  0  0  0  0  0  0999 V2000
   -1.4289    1.8562    0.0000 O   0  0  0  0  0  0  0  2  0  0  0  0
   -1.4289    1.0312    0.0000 N   0  0  0  0  0  0  0  2  0  0  0  0
   -2.1434    0.6187    0.0000 O   0  0  0  0  0  0  0  2  0  0  0  0
   -0.7145    0.6187    0.0000 C   0  0  0  0  0  0  0  2  0  0  0  0
   -0.7145   -0.2063    0.0000 C   0  0  0  0  0  0  0  2  0  0  0  0
   -1.4289   -0.6188    0.0000 O   0  0  0  0  0  0  0  2  0  0  0  0
    0.0000   -0.6188    0.0000 C   0  0  0  0  0  0  0  2  0  0  0  0
    0.0000   -1.4437    0.0000 N   0  0  0  0  0  0  0  2  0  0  0  0
   -0.7145   -1.8562    0.0000 O   0  0  0  0  0  0  0  2  0  0  0  0
    0.7145   -1.8562    0.0000 O   0  0  0  0  0  0  0  2  0  0  0  0
    0.7145   -0.2063    0.0000 C   0  0  0  0  0  0  0  2  0  0  0  0
    1.4289   -0.6188    0.0000 O   0  0  0  0  0  0  0  2  0  0  0  0
    0.7145    0.6187    0.0000 C   0  0  0  0  0  0  0  2  0  0  0  0
    1.4289    1.0312    0.0000 N   0  0  0  0  0  0  0  2  0  0  0  0
    1.4289    1.8562    0.0000 O   0  0  0  0  0  0  0  2  0  0  0  0
    2.1434    0.6187    0.0000 O   0  0  0  0  0  0  0  2  0  0  0  0
    0.0000    1.0312    0.0000 C   0  0  0  0  0  0  0  2  0  0  0  0
  1  2  2  0        0
  2  3  2  0        0
  2  4  1  0        0
  4  5  4  0        0
  5  6  1  0        0
  5  7  4  0        0
  7  8  1  0        0
  8  9  2  0        0
  8 10  2  0        0
  7 11  4  0        0
 11 12  1  0        0
 11 13  4  0        0
 13 14  1  0        0
 14 15  2  0        0
 14 16  2  0        0
 13 17  4  0        0
  4 17  4  0        0
M  END
>  <CAS RN>
82713

>  <SMILES>
O=N(=O)c1c(O)c(N(=O)=O)c(O)c(N(=O)=O)c1

>  <Measured or Estimated Log10(mmol/L)>
1.443160286

$$$$

CDXL12

 11 11  0  0  0  0  0  0  0  0999 V2000
   -0.7145    1.6500    0.0000 O   0  0  0  0  0  0  0  2  0  0  0  0
   -0.7145    0.8250    0.0000 N   0  0  0  0  0  0  0  2  0  0  0  0
   -1.4289    0.4125    0.0000 O   0  0  0  0  0  0  0  2  0  0  0  0
    0.0000    0.4125    0.0000 C   0  0  0  0  0  0  0  2  0  0  0  0
    0.7145    0.8250    0.0000 C   0  0  0  0  0  0  0  2  0  0  0  0
    1.4289    0.4125    0.0000 C   0  0  0  0  0  0  0  2  0  0  0  0
    1.4289   -0.4125    0.0000 C   0  0  0  0  0  0  0  2  0  0  0  0
    0.7145   -0.8250    0.0000 C   0  0  0  0  0  0  0  2  0  0  0  0
    0.7145   -1.6500    0.0000 C   0  0  0  0  0  0  0  2  0  0  0  0
    0.0000   -0.4125    0.0000 C   0  0  0  0  0  0  0  2  0  0  0  0
   -0.7145   -0.8250    0.0000 C   0  0  0  0  0  0  0  2  0  0  0  0
  1  2  2  0        0
  2  3  2  0        0
  2  4  1  0        0
  4  5  4  0        0
  5  6  4  0        0
  6  7  4  0        0
  7  8  4  0        0
  8  9  1  0        0
  8 10  4  0        0
  4 10  4  0        0
 10 11  1  0        0
M  END
>  <CAS RN>
83410

>  <SMILES>
O=N(=O)c1cccc(C)c1C

>  <Measured or Estimated Log10(mmol/L)>
-1.556201958

$$$$

CDXL12

 11 11  0  0  0  0  0  0  0  0999 V2000
   -0.7145    1.6500    0.0000 O   0  0  0  0  0  0  0  2  0  0  0  0
   -0.7145    0.8250    0.0000 N   0  0  0  0  0  0  0  2  0  0  0  0
   -1.4289    0.4125    0.0000 O   0  0  0  0  0  0  0  2  0  0  0  0
    0.0000    0.4125    0.0000 C   0  0  0  0  0  0  0  2  0  0  0  0
    0.7145    0.8250    0.0000 C   0  0  0  0  0  0  0  2  0  0  0  0
    1.4289    0.4125    0.0000 C   0  0  0  0  0  0  0  2  0  0  0  0
    1.4289   -0.4125    0.0000 C   0  0  0  0  0  0  0  2  0  0  0  0
    0.7145   -0.8250    0.0000 C   0  0  0  0  0  0  0  2  0  0  0  0
    0.7145   -1.6500    0.0000 Cl  0  0  0  0  0  0  0  2  0  0  0  0
    0.0000   -0.4125    0.0000 C   0  0  0  0  0  0  0  2  0  0  0  0
   -0.7145   -0.8250    0.0000 C   0  0  0  0  0  0  0  2  0  0  0  0
  1  2  2  0        0
  2  3  2  0        0
  2  4  1  0        0
  4  5  4  0        0
  5  6  4  0        0
  6  7  4  0        0
  7  8  4  0        0
  8  9  1  0        0
  8 10  4  0        0
  4 10  4  0        0
 10 11  1  0        0
M  END
>  <CAS RN>
83421

>  <SMILES>
O=N(=O)c1cccc(Cl)c1C

>  <Measured or Estimated Log10(mmol/L)>
-1.964728545

$$$$

CDXL12

 19 19  0  0  0  0  0  0  0  0999 V2000
   -1.4289    1.8562    0.0000 O   0  0  0  0  0  0  0  2  0  0  0  0
   -1.4289    1.0312    0.0000 N   0  0  0  0  0  0  0  2  0  0  0  0
   -2.1434    0.6187    0.0000 O   0  0  0  0  0  0  0  2  0  0  0  0
   -0.7145    0.6187    0.0000 C   0  0  0  0  0  0  0  2  0  0  0  0
   -0.7145   -0.2063    0.0000 C   0  0  0  0  0  0  0  2  0  0  0  0
    0.0000   -0.6188    0.0000 C   0  0  0  0  0  0  0  2  0  0  0  0
    0.0000   -1.4437    0.0000 N   0  0  0  0  0  0  0  2  0  0  0  0
   -0.7145   -1.8562    0.0000 O   0  0  0  0  0  0  0  2  0  0  0  0
    0.7145   -1.8562    0.0000 O   0  0  0  0  0  0  0  2  0  0  0  0
    0.7145   -0.2063    0.0000 C   0  0  0  0  0  0  0  2  0  0  0  0
    1.4289   -0.6188    0.0000 O   0  0  0  0  0  0  0  2  0  0  0  0
    2.1434   -0.2063    0.0000 C   0  0  0  0  0  0  0  2  0  0  0  0
    0.7145    0.6187    0.0000 C   0  0  0  0  0  0  0  2  0  0  0  0
    1.4289    1.0312    0.0000 C   0  0  0  0  0  0  0  2  0  0  0  0
    1.4289    1.8562    0.0000 C   0  0  0  0  0  0  0  2  0  0  0  0
    2.1434    1.4437    0.0000 C   0  0  0  0  0  0  0  2  0  0  0  0
    2.1434    0.6187    0.0000 C   0  0  0  0  0  0  0  2  0  0  0  0
    0.0000    1.0312    0.0000 C   0  0  0  0  0  0  0  2  0  0  0  0
   -1.4289   -0.6188    0.0000 C   0  0  0  0  0  0  0  2  0  0  0  0
  1  2  2  0        0
  2  3  2  0        0
  2  4  1  0        0
  4  5  4  0        0
  5  6  4  0        0
  6  7  1  0        0
  7  8  2  0        0
  7  9  2  0        0
  6 10  4  0        0
 10 11  1  0        0
 11 12  1  0        0
 10 13  4  0        0
 13 14  1  0        0
 14 15  1  0        0
 14 16  1  0        0
 14 17  1  0        0
 13 18  4  0        0
  4 18  4  0        0
  5 19  1  0        0
M  END
>  <CAS RN>
83669

>  <SMILES>
O=N(=O)c1c(c(N(=O)=O)c(OC)c(C(C)(C)C)c1)C

>  <Measured or Estimated Log10(mmol/L)>
-2.64

$$$$

CDXL12

 29 33  0  0  0  0  0  0  0  0999 V2000
   -3.9726   -1.5736    0.0000 C   0  0  0  0  0  0  0  2  0  0  0  0
   -3.2582   -1.9861    0.0000 O   0  0  0  0  0  0  0  2  0  0  0  0
   -2.5437   -1.5736    0.0000 C   0  0  0  0  0  0  0  2  0  0  0  0
   -2.5437   -0.7486    0.0000 C   0  0  0  0  0  0  0  2  0  0  0  0
   -1.8292   -0.3361    0.0000 C   0  0  0  0  0  0  0  2  0  0  0  0
   -1.8292    0.4889    0.0000 O   0  0  0  0  0  0  0  2  0  0  0  0
   -1.1148    0.9014    0.0000 C   0  0  0  0  0  0  0  2  0  0  0  0
   -0.4003    0.4889    0.0000 C   0  0  0  0  0  0  0  2  0  0  0  0
    0.3142    0.9014    0.0000 O   0  0  0  0  0  0  0  2  0  0  0  0
    1.0287    0.4889    0.0000 C   0  0  0  0  0  0  0  2  0  0  0  0
    1.7431    0.9014    0.0000 C   0  0  0  0  0  0  0  2  0  0  0  0
    1.9147    1.7084    0.0000 C   0  0  0  0  0  0  0  2  0  0  0  0
    2.7351    1.7946    0.0000 C   0  0  0  0  0  0  0  2  0  0  0  0
    3.0707    1.0410    0.0000 O   0  0  0  0  0  0  0  2  0  0  0  0
    2.4576    0.4889    0.0000 C   0  0  0  0  0  0  0  2  0  0  0  0
    2.4576   -0.3361    0.0000 C   0  0  0  0  0  0  0  2  0  0  0  0
    1.7431   -0.7486    0.0000 C   0  0  0  0  0  0  0  2  0  0  0  0
    1.0287   -0.3361    0.0000 C   0  0  0  0  0  0  0  2  0  0  0  0
    0.3142   -0.7486    0.0000 C   0  0  0  0  0  0  0  2  0  0  0  0
    0.3142   -1.5736    0.0000 O   0  0  0  0  0  0  0  2  0  0  0  0
   -0.4003   -0.3361    0.0000 C   0  0  0  0  0  0  0  2  0  0  0  0
   -1.1148   -0.7486    0.0000 C   0  0  0  0  0  0  0  2  0  0  0  0
   -1.1148   -1.5736    0.0000 C   0  0  0  0  0  0  0  2  0  0  0  0
   -1.8292   -1.9861    0.0000 C   0  0  0  0  0  0  0  2  0  0  0  0
   -1.8292   -2.8111    0.0000 O   0  0  0  0  0  0  0  2  0  0  0  0
   -2.5437   -3.2236    0.0000 C   0  0  0  0  0  0  0  2  0  0  0  0
    3.1476    2.5091    0.0000 C   0  0  0  0  0  0  0  2  0  0  0  0
    2.7351    3.2236    0.0000 C   0  0  0  0  0  0  0  2  0  0  0  0
    3.9726    2.5091    0.0000 C   0  0  0  0  0  0  0  2  0  0  0  0
  1  2  1  0        0
  2  3  1  0        0
  3  4  4  0        0
  4  5  4  0        0
  5  6  1  0        0
  6  7  1  0        0
  7  8  1  0        0
  8  9  1  0        0
  9 10  1  0        0
 10 11  4  0        0
 11 12  1  0        0
 12 13  1  0        0
 13 14  1  0        0
 14 15  1  0        0
 11 15  4  0        0
 15 16  4  0        0
 16 17  4  0        0
 17 18  4  0        0
 10 18  4  0        0
 18 19  1  0        0
 19 20  2  0        0
 19 21  1  0        0
  8 21  1  0        0
 21 22  1  0        0
  5 22  4  0        0
 22 23  4  0        0
 23 24  4  0        0
  3 24  4  0        0
 24 25  1  0        0
 25 26  1  0        0
 13 27  1  0        0
 27 28  1  0        0
 27 29  2  0        0
M  END
>  <CAS RN>
83794

>  <SMILES>
COc1cc2OCC3Oc4c5CC(Oc5ccc4C(=O)C3c2cc1OC)C(C)=C

>  <Measured or Estimated Log10(mmol/L)>
-4.79

$$$$

CDXL12

 24 26  0  0  0  0  0  0  0  0999 V2000
   -0.3572    1.6500    0.0000 O   0  0  0  0  0  0  0  2  0  0  0  0
   -0.3572    0.8250    0.0000 C   0  0  0  0  0  0  0  2  0  0  0  0
    0.3572    0.4125    0.0000 O   0  0  0  0  0  0  0  2  0  0  0  0
    1.0717    0.8250    0.0000 C   0  0  0  0  0  0  0  2  0  0  0  0
    1.0717    1.6500    0.0000 C   0  0  0  0  0  0  0  2  0  0  0  0
    1.7862    2.0625    0.0000 C   0  0  0  0  0  0  0  2  0  0  0  0
    2.5006    1.6500    0.0000 C   0  0  0  0  0  0  0  2  0  0  0  0
    2.5006    0.8250    0.0000 C   0  0  0  0  0  0  0  2  0  0  0  0
    1.7862    0.4125    0.0000 C   0  0  0  0  0  0  0  2  0  0  0  0
   -1.0717    0.4125    0.0000 C   0  0  0  0  0  0  0  2  0  0  0  0
   -1.0717   -0.4125    0.0000 C   0  0  0  0  0  0  0  2  0  0  0  0
   -1.7862   -0.8250    0.0000 C   0  0  0  0  0  0  0  2  0  0  0  0
   -2.5006   -0.4125    0.0000 C   0  0  0  0  0  0  0  2  0  0  0  0
   -2.5006    0.4125    0.0000 C   0  0  0  0  0  0  0  2  0  0  0  0
   -1.7862    0.8250    0.0000 C   0  0  0  0  0  0  0  2  0  0  0  0
   -0.3572   -0.8250    0.0000 C   0  0  0  0  0  0  0  2  0  0  0  0
   -0.3572   -1.6500    0.0000 O   0  0  0  0  0  0  0  2  0  0  0  0
    0.3572   -0.4125    0.0000 O   0  0  0  0  0  0  0  2  0  0  0  0
    1.0717   -0.8250    0.0000 C   0  0  0  0  0  0  0  2  0  0  0  0
    1.7862   -0.4125    0.0000 C   0  0  0  0  0  0  0  2  0  0  0  0
    2.5006   -0.8250    0.0000 C   0  0  0  0  0  0  0  2  0  0  0  0
    2.5006   -1.6500    0.0000 C   0  0  0  0  0  0  0  2  0  0  0  0
    1.7862   -2.0625    0.0000 C   0  0  0  0  0  0  0  2  0  0  0  0
    1.0717   -1.6500    0.0000 C   0  0  0  0  0  0  0  2  0  0  0  0
  1  2  2  0        0
  2  3  1  0        0
  3  4  1  0        0
  4  5  1  0        0
  5  6  1  0        0
  6  7  1  0        0
  7  8  1  0        0
  8  9  1  0        0
  4  9  1  0        0
  2 10  1  0        0
 10 11  4  0        0
 11 12  4  0        0
 12 13  4  0        0
 13 14  4  0        0
 14 15  4  0        0
 10 15  4  0        0
 11 16  1  0        0
 16 17  2  0        0
 16 18  1  0        0
 18 19  1  0        0
 19 20  1  0        0
 20 21  1  0        0
 21 22  1  0        0
 22 23  1  0        0
 23 24  1  0        0
 19 24  1  0        0
M  END
>  <CAS RN>
84617

>  <SMILES>
O=C(OC1CCCCC1)c1c(cccc1)C(=O)OC1CCCCC1

>  <Measured or Estimated Log10(mmol/L)>
-1.557268668

$$$$

CDXL12

 16 16  0  0  0  0  0  0  0  0999 V2000
    0.0000   -1.6500    0.0000 O   0  0  0  0  0  0  0  2  0  0  0  0
    0.0000   -0.8250    0.0000 C   0  0  0  0  0  0  0  2  0  0  0  0
    0.7145   -0.4125    0.0000 O   0  0  0  0  0  0  0  2  0  0  0  0
    1.4289   -0.8250    0.0000 C   0  0  0  0  0  0  0  2  0  0  0  0
    2.1434   -0.4125    0.0000 C   0  0  0  0  0  0  0  2  0  0  0  0
   -0.7145   -0.4125    0.0000 C   0  0  0  0  0  0  0  2  0  0  0  0
   -0.7145    0.4125    0.0000 C   0  0  0  0  0  0  0  2  0  0  0  0
   -1.4289    0.8250    0.0000 C   0  0  0  0  0  0  0  2  0  0  0  0
   -2.1434    0.4125    0.0000 C   0  0  0  0  0  0  0  2  0  0  0  0
   -2.1434   -0.4125    0.0000 C   0  0  0  0  0  0  0  2  0  0  0  0
   -1.4289   -0.8250    0.0000 C   0  0  0  0  0  0  0  2  0  0  0  0
    0.0000    0.8250    0.0000 C   0  0  0  0  0  0  0  2  0  0  0  0
    0.0000    1.6500    0.0000 O   0  0  0  0  0  0  0  2  0  0  0  0
    0.7145    0.4125    0.0000 O   0  0  0  0  0  0  0  2  0  0  0  0
    1.4289    0.8250    0.0000 C   0  0  0  0  0  0  0  2  0  0  0  0
    2.1434    0.4125    0.0000 C   0  0  0  0  0  0  0  2  0  0  0  0
  1  2  2  0        0
  2  3  1  0        0
  3  4  1  0        0
  4  5  1  0        0
  2  6  1  0        0
  6  7  4  0        0
  7  8  4  0        0
  8  9  4  0        0
  9 10  4  0        0
 10 11  4  0        0
  6 11  4  0        0
  7 12  1  0        0
 12 13  2  0        0
 12 14  1  0        0
 14 15  1  0        0
 15 16  1  0        0
M  END
>  <CAS RN>
84662

>  <SMILES>
O=C(OCC)c1c(cccc1)C(=O)OCC

>  <Measured or Estimated Log10(mmol/L)>
-0.630818885

$$$$

CDXL12

 20 20  0  0  0  0  0  0  0  0999 V2000
   -0.7145   -1.6500    0.0000 O   0  0  0  0  0  0  0  2  0  0  0  0
   -0.7145   -0.8250    0.0000 C   0  0  0  0  0  0  0  2  0  0  0  0
   -0.0000   -0.4125    0.0000 O   0  0  0  0  0  0  0  2  0  0  0  0
    0.7145   -0.8250    0.0000 C   0  0  0  0  0  0  0  2  0  0  0  0
    1.4289   -0.4125    0.0000 C   0  0  0  0  0  0  0  2  0  0  0  0
    2.1434   -0.8250    0.0000 C   0  0  0  0  0  0  0  2  0  0  0  0
    2.8579   -0.4125    0.0000 C   0  0  0  0  0  0  0  2  0  0  0  0
   -1.4289   -0.4125    0.0000 C   0  0  0  0  0  0  0  2  0  0  0  0
   -1.4289    0.4125    0.0000 C   0  0  0  0  0  0  0  2  0  0  0  0
   -2.1434    0.8250    0.0000 C   0  0  0  0  0  0  0  2  0  0  0  0
   -2.8579    0.4125    0.0000 C   0  0  0  0  0  0  0  2  0  0  0  0
   -2.8579   -0.4125    0.0000 C   0  0  0  0  0  0  0  2  0  0  0  0
   -2.1434   -0.8250    0.0000 C   0  0  0  0  0  0  0  2  0  0  0  0
   -0.7145    0.8250    0.0000 C   0  0  0  0  0  0  0  2  0  0  0  0
   -0.7145    1.6500    0.0000 O   0  0  0  0  0  0  0  2  0  0  0  0
   -0.0000    0.4125    0.0000 O   0  0  0  0  0  0  0  2  0  0  0  0
    0.7145    0.8250    0.0000 C   0  0  0  0  0  0  0  2  0  0  0  0
    1.4289    0.4125    0.0000 C   0  0  0  0  0  0  0  2  0  0  0  0
    2.1434    0.8250    0.0000 C   0  0  0  0  0  0  0  2  0  0  0  0
    2.8579    0.4125    0.0000 C   0  0  0  0  0  0  0  2  0  0  0  0
  1  2  2  0        0
  2  3  1  0        0
  3  4  1  0        0
  4  5  1  0        0
  5  6  1  0        0
  6  7  1  0        0
  2  8  1  0        0
  8  9  4  0        0
  9 10  4  0        0
 10 11  4  0        0
 11 12  4  0        0
 12 13  4  0        0
  8 13  4  0        0
  9 14  1  0        0
 14 15  2  0        0
 14 16  1  0        0
 16 17  1  0        0
 17 18  1  0        0
 18 19  1  0        0
 19 20  1  0        0
M  END
>  <CAS RN>
84742

>  <SMILES>
O=C(OCCCC)c1c(cccc1)C(=O)OCCCC

>  <Measured or Estimated Log10(mmol/L)>
-1.876386381

$$$$

CDXL12

 16 18  0  0  0  0  0  0  0  0999 V2000
    0.3572   -1.2375    0.0000 C   0  0  0  0  0  0  0  2  0  0  0  0
    1.0717   -0.8250    0.0000 C   0  0  0  0  0  0  0  2  0  0  0  0
    1.0717    0.0000    0.0000 N   0  0  0  0  0  0  0  2  0  0  0  0
    1.7862   -0.4125    0.0000 Br  0  0  0  0  0  0  0  2  0  0  0  0
    1.7862    0.4125    0.0000 C   0  0  0  0  0  0  0  2  0  0  0  0
    1.7862    1.2375    0.0000 C   0  0  0  0  0  0  0  2  0  0  0  0
    1.0717    1.6500    0.0000 C   0  0  0  0  0  0  0  2  0  0  0  0
    0.3572    1.2375    0.0000 C   0  0  0  0  0  0  0  2  0  0  0  0
    0.3572    0.4125    0.0000 C   0  0  0  0  0  0  0  2  0  0  0  0
   -0.3572    0.0000    0.0000 C   0  0  0  0  0  0  0  2  0  0  0  0
   -1.0717    0.4125    0.0000 C   0  0  0  0  0  0  0  2  0  0  0  0
   -1.7862   -0.0000    0.0000 C   0  0  0  0  0  0  0  2  0  0  0  0
   -1.7862   -0.8250    0.0000 C   0  0  0  0  0  0  0  2  0  0  0  0
   -1.0717   -1.2375    0.0000 C   0  0  0  0  0  0  0  2  0  0  0  0
   -0.3572   -0.8250    0.0000 N   0  0  0  0  0  0  0  2  0  0  0  0
   -0.3572   -1.6500    0.0000 Br  0  0  0  0  0  0  0  2  0  0  0  0
  1  2  1  0        0
  2  3  1  0        0
  3  4  1  0        0
  3  5  1  0        0
  5  6  1  0        0
  6  7  1  0        0
  7  8  1  0        0
  8  9  1  0        0
  3  9  1  0        0
  9 10  1  0        0
 10 11  1  0        0
 11 12  1  0        0
 12 13  1  0        0
 13 14  1  0        0
 14 15  1  0        0
  1 15  1  0        0
 10 15  1  0        0
 15 16  1  0        0
M  END
>  <CAS RN>
85007

>  <SMILES>
C1CN2(Br)CCCCC2C2CCCCN12Br

>  <Measured or Estimated Log10(mmol/L)>
-2.072053728

$$$$

CDXL12

 14 16  0  0  0  0  0  0  0  0999 V2000
   -0.3572   -1.0313    0.0000 C   0  0  0  0  0  0  0  2  0  0  0  0
   -0.3572   -0.2063    0.0000 C   0  0  0  0  0  0  0  2  0  0  0  0
    0.3572    0.2062    0.0000 C   0  0  0  0  0  0  0  2  0  0  0  0
    1.0717   -0.2062    0.0000 C   0  0  0  0  0  0  0  2  0  0  0  0
    1.0717   -1.0312    0.0000 C   0  0  0  0  0  0  0  2  0  0  0  0
    0.3572   -1.4437    0.0000 C   0  0  0  0  0  0  0  2  0  0  0  0
    1.7862    0.2062    0.0000 C   0  0  0  0  0  0  0  2  0  0  0  0
    1.7862    1.0313    0.0000 C   0  0  0  0  0  0  0  2  0  0  0  0
    1.0717    1.4438    0.0000 C   0  0  0  0  0  0  0  2  0  0  0  0
    0.3572    1.0313    0.0000 C   0  0  0  0  0  0  0  2  0  0  0  0
   -1.0717    0.2062    0.0000 C   0  0  0  0  0  0  0  2  0  0  0  0
   -1.7862   -0.2063    0.0000 C   0  0  0  0  0  0  0  2  0  0  0  0
   -1.7862   -1.0313    0.0000 C   0  0  0  0  0  0  0  2  0  0  0  0
   -1.0717   -1.4438    0.0000 C   0  0  0  0  0  0  0  2  0  0  0  0
  1  2  4  0        0
  2  3  4  0        0
  3  4  4  0        0
  4  5  4  0        0
  5  6  4  0        0
  1  6  4  0        0
  4  7  4  0        0
  7  8  4  0        0
  8  9  4  0        0
  9 10  4  0        0
  3 10  4  0        0
  2 11  4  0        0
 11 12  4  0        0
 12 13  4  0        0
 13 14  4  0        0
  1 14  4  0        0
M  END
>  <CAS RN>
85018

>  <SMILES>
c12c(c3c(cc1)cccc3)cccc2

>  <Measured or Estimated Log10(mmol/L)>
-2.405892514

$$$$

CDXL12

 23 24  0  0  0  0  0  0  0  0999 V2000
    0.0000   -1.0313    0.0000 O   0  0  0  0  0  0  0  2  0  0  0  0
   -0.7145   -0.6188    0.0000 C   0  0  0  0  0  0  0  2  0  0  0  0
   -0.7145    0.2062    0.0000 O   0  0  0  0  0  0  0  2  0  0  0  0
    0.0000    0.6188    0.0000 C   0  0  0  0  0  0  0  2  0  0  0  0
    0.0000    1.4438    0.0000 C   0  0  0  0  0  0  0  2  0  0  0  0
   -0.7145    1.8563    0.0000 C   0  0  0  0  0  0  0  2  0  0  0  0
   -0.7145    2.6812    0.0000 C   0  0  0  0  0  0  0  2  0  0  0  0
    0.0000    3.0938    0.0000 C   0  0  0  0  0  0  0  2  0  0  0  0
    0.7145    2.6812    0.0000 C   0  0  0  0  0  0  0  2  0  0  0  0
    0.7145    1.8563    0.0000 C   0  0  0  0  0  0  0  2  0  0  0  0
   -1.4289   -1.0313    0.0000 C   0  0  0  0  0  0  0  2  0  0  0  0
   -1.4289   -1.8563    0.0000 C   0  0  0  0  0  0  0  2  0  0  0  0
   -2.1434   -2.2687    0.0000 C   0  0  0  0  0  0  0  2  0  0  0  0
   -2.8579   -1.8563    0.0000 C   0  0  0  0  0  0  0  2  0  0  0  0
   -2.8579   -1.0313    0.0000 C   0  0  0  0  0  0  0  2  0  0  0  0
   -2.1434   -0.6188    0.0000 C   0  0  0  0  0  0  0  2  0  0  0  0
   -0.7145   -2.2687    0.0000 C   0  0  0  0  0  0  0  2  0  0  0  0
   -0.7145   -3.0938    0.0000 O   0  0  0  0  0  0  0  2  0  0  0  0
    0.0000   -1.8563    0.0000 O   0  0  0  0  0  0  0  2  0  0  0  0
    0.7145   -2.2687    0.0000 C   0  0  0  0  0  0  0  2  0  0  0  0
    1.4289   -1.8563    0.0000 C   0  0  0  0  0  0  0  2  0  0  0  0
    2.1434   -2.2687    0.0000 C   0  0  0  0  0  0  0  2  0  0  0  0
    2.8579   -1.8563    0.0000 C   0  0  0  0  0  0  0  2  0  0  0  0
  1  2  2  0        0
  2  3  1  0        0
  3  4  1  0        0
  4  5  1  0        0
  5  6  4  0        0
  6  7  4  0        0
  7  8  4  0        0
  8  9  4  0        0
  9 10  4  0        0
  5 10  4  0        0
  2 11  1  0        0
 11 12  4  0        0
 12 13  4  0        0
 13 14  4  0        0
 14 15  4  0        0
 15 16  4  0        0
 11 16  4  0        0
 12 17  1  0        0
 17 18  2  0        0
 17 19  1  0        0
 19 20  1  0        0
 20 21  1  0        0
 21 22  1  0        0
 22 23  1  0        0
M  END
>  <CAS RN>
85687

>  <SMILES>
O=C(OCc1ccccc1)c1c(cccc1)C(=O)OCCCC

>  <Measured or Estimated Log10(mmol/L)>
-0.530874539

$$$$

CDXL12

 19 20  0  0  0  0  0  0  0  0999 V2000
    1.7862   -1.2375    0.0000 S   0  0  0  0  0  0  0  2  0  0  0  0
    1.7862   -0.4125    0.0000 P   0  0  0  0  0  0  0  2  0  0  0  0
    2.5006    0.0000    0.0000 O   0  0  0  0  0  0  0  2  0  0  0  0
    3.2151   -0.4125    0.0000 C   0  0  0  0  0  0  0  2  0  0  0  0
    1.7862    0.4125    0.0000 O   0  0  0  0  0  0  0  2  0  0  0  0
    2.5006    0.8250    0.0000 C   0  0  0  0  0  0  0  2  0  0  0  0
    1.0717    0.0000    0.0000 S   0  0  0  0  0  0  0  2  0  0  0  0
    0.3572   -0.4125    0.0000 C   0  0  0  0  0  0  0  2  0  0  0  0
   -0.3572    0.0000    0.0000 N   0  0  0  0  0  0  0  2  0  0  0  0
   -0.3572    0.8250    0.0000 N   0  0  0  0  0  0  0  2  0  0  0  0
   -1.0717    1.2375    0.0000 N   0  0  0  0  0  0  0  2  0  0  0  0
   -1.7862    0.8250    0.0000 C   0  0  0  0  0  0  0  2  0  0  0  0
   -2.5006    1.2375    0.0000 C   0  0  0  0  0  0  0  2  0  0  0  0
   -3.2151    0.8250    0.0000 C   0  0  0  0  0  0  0  2  0  0  0  0
   -3.2151   -0.0000    0.0000 C   0  0  0  0  0  0  0  2  0  0  0  0
   -2.5006   -0.4125    0.0000 C   0  0  0  0  0  0  0  2  0  0  0  0
   -1.7862   -0.0000    0.0000 C   0  0  0  0  0  0  0  2  0  0  0  0
   -1.0717   -0.4125    0.0000 C   0  0  0  0  0  0  0  2  0  0  0  0
   -1.0717   -1.2375    0.0000 O   0  0  0  0  0  0  0  2  0  0  0  0
  1  2  2  0        0
  2  3  1  0        0
  3  4  1  0        0
  2  5  1  0        0
  5  6  1  0        0
  2  7  1  0        0
  7  8  1  0        0
  8  9  1  0        0
  9 10  1  0        0
 10 11  2  0        0
 11 12  1  0        0
 12 13  4  0        0
 13 14  4  0        0
 14 15  4  0        0
 15 16  4  0        0
 16 17  4  0        0
 12 17  4  0        0
 17 18  1  0        0
  9 18  1  0        0
 18 19  2  0        0
M  END
>  <CAS RN>
86500

>  <SMILES>
S=P(OC)(OC)SCN1\N=N/c2ccccc2C1=O

>  <Measured or Estimated Log10(mmol/L)>
-6.768033878

$$$$

CDXL12

 13 15  0  0  0  0  0  0  0  0999 V2000
   -0.6674    0.4564    0.0000 C   0  0  0  0  0  0  0  2  0  0  0  0
   -0.4125   -0.3282    0.0000 C   0  0  0  0  0  0  0  2  0  0  0  0
    0.4125   -0.3282    0.0000 C   0  0  0  0  0  0  0  2  0  0  0  0
    0.6674    0.4564    0.0000 C   0  0  0  0  0  0  0  2  0  0  0  0
    1.4744    0.6279    0.0000 C   0  0  0  0  0  0  0  2  0  0  0  0
    2.0264    0.0148    0.0000 C   0  0  0  0  0  0  0  2  0  0  0  0
    1.7715   -0.7698    0.0000 C   0  0  0  0  0  0  0  2  0  0  0  0
    0.9645   -0.9413    0.0000 C   0  0  0  0  0  0  0  2  0  0  0  0
    0.0000    0.9413    0.0000 C   0  0  0  0  0  0  0  2  0  0  0  0
   -0.9645   -0.9413    0.0000 C   0  0  0  0  0  0  0  2  0  0  0  0
   -1.7715   -0.7698    0.0000 C   0  0  0  0  0  0  0  2  0  0  0  0
   -2.0264    0.0148    0.0000 C   0  0  0  0  0  0  0  2  0  0  0  0
   -1.4744    0.6279    0.0000 C   0  0  0  0  0  0  0  2  0  0  0  0
  1  2  4  0        0
  2  3  1  0        0
  3  4  4  0        0
  4  5  4  0        0
  5  6  4  0        0
  6  7  4  0        0
  7  8  4  0        0
  3  8  4  0        0
  4  9  1  0        0
  1  9  1  0        0
  2 10  4  0        0
 10 11  4  0        0
 11 12  4  0        0
 12 13  4  0        0
  1 13  4  0        0
M  END
>  <CAS RN>
86737

>  <SMILES>
c12c(c3c(cccc3)C1)cccc2

>  <Measured or Estimated Log10(mmol/L)>
-2.89

$$$$

CDXL12

 13 15  0  0  0  0  0  0  0  0999 V2000
    0.0000    0.9413    0.0000 N   0  0  0  0  0  0  0  2  0  0  0  0
   -0.6674    0.4564    0.0000 C   0  0  0  0  0  0  0  2  0  0  0  0
   -0.4125   -0.3282    0.0000 C   0  0  0  0  0  0  0  2  0  0  0  0
    0.4125   -0.3282    0.0000 C   0  0  0  0  0  0  0  2  0  0  0  0
    0.9645   -0.9413    0.0000 C   0  0  0  0  0  0  0  2  0  0  0  0
    1.7715   -0.7698    0.0000 C   0  0  0  0  0  0  0  2  0  0  0  0
    2.0264    0.0148    0.0000 C   0  0  0  0  0  0  0  2  0  0  0  0
    1.4744    0.6279    0.0000 C   0  0  0  0  0  0  0  2  0  0  0  0
    0.6674    0.4564    0.0000 C   0  0  0  0  0  0  0  2  0  0  0  0
   -0.9645   -0.9413    0.0000 C   0  0  0  0  0  0  0  2  0  0  0  0
   -1.7715   -0.7698    0.0000 C   0  0  0  0  0  0  0  2  0  0  0  0
   -2.0264    0.0148    0.0000 C   0  0  0  0  0  0  0  2  0  0  0  0
   -1.4744    0.6279    0.0000 C   0  0  0  0  0  0  0  2  0  0  0  0
  1  2  4  0        0
  2  3  4  0        0
  3  4  4  0        0
  4  5  4  0        0
  5  6  4  0        0
  6  7  4  0        0
  7  8  4  0        0
  8  9  4  0        0
  1  9  4  0        0
  4  9  4  0        0
  3 10  4  0        0
 10 11  4  0        0
 11 12  4  0        0
 12 13  4  0        0
  2 13  4  0        0
M  END
>  <CAS RN>
86748

>  <SMILES>
[nH]1c2c(c3ccccc13)cccc2

>  <Measured or Estimated Log10(mmol/L)>
-2.89285106

$$$$

CDXL12

 14 14  0  0  0  0  0  0  0  0999 V2000
    2.1434   -1.0312    0.0000 O   0  0  0  0  0  0  0  2  0  0  0  0
    1.4289   -1.4437    0.0000 C   0  0  0  0  0  0  0  2  0  0  0  0
    0.7145   -1.0313    0.0000 C   0  0  0  0  0  0  0  2  0  0  0  0
    0.7145   -0.2062    0.0000 C   0  0  0  0  0  0  0  2  0  0  0  0
    0.0000    0.2062    0.0000 C   0  0  0  0  0  0  0  2  0  0  0  0
    0.0000    1.0312    0.0000 O   0  0  0  0  0  0  0  2  0  0  0  0
   -0.7145    1.4437    0.0000 C   0  0  0  0  0  0  0  2  0  0  0  0
   -0.7145   -0.2063    0.0000 C   0  0  0  0  0  0  0  2  0  0  0  0
   -1.4289    0.2062    0.0000 O   0  0  0  0  0  0  0  2  0  0  0  0
   -2.1434   -0.2063    0.0000 C   0  0  0  0  0  0  0  2  0  0  0  0
   -0.7145   -1.0313    0.0000 C   0  0  0  0  0  0  0  2  0  0  0  0
   -1.4289   -1.4437    0.0000 O   0  0  0  0  0  0  0  2  0  0  0  0
   -2.1434   -1.0313    0.0000 C   0  0  0  0  0  0  0  2  0  0  0  0
    0.0000   -1.4437    0.0000 C   0  0  0  0  0  0  0  2  0  0  0  0
  1  2  2  0        0
  2  3  1  0        0
  3  4  4  0        0
  4  5  4  0        0
  5  6  1  0        0
  6  7  1  0        0
  5  8  4  0        0
  8  9  1  0        0
  9 10  1  0        0
  8 11  4  0        0
 11 12  1  0        0
 12 13  1  0        0
 11 14  4  0        0
  3 14  4  0        0
M  END
>  <CAS RN>
86817

>  <SMILES>
O=Cc1cc(OC)c(OC)c(OC)c1

>  <Measured or Estimated Log10(mmol/L)>
-0.209918049

$$$$

CDXL12

  9  9  0  0  0  0  0  0  0  0999 V2000
   -0.3572    1.2375    0.0000 N   0  0  0  0  0  0  0  2  0  0  0  0
   -0.3572    0.4125    0.0000 C   0  0  0  0  0  0  0  2  0  0  0  0
    0.3572    0.0000    0.0000 C   0  0  0  0  0  0  0  2  0  0  0  0
    0.3572   -0.8250    0.0000 C   0  0  0  0  0  0  0  2  0  0  0  0
   -0.3572   -1.2375    0.0000 C   0  0  0  0  0  0  0  2  0  0  0  0
   -1.0717   -0.8250    0.0000 C   0  0  0  0  0  0  0  2  0  0  0  0
   -1.0717    0.0000    0.0000 C   0  0  0  0  0  0  0  2  0  0  0  0
    1.0717   -1.2375    0.0000 Cl  0  0  0  0  0  0  0  2  0  0  0  0
    1.0717    0.4125    0.0000 C   0  0  0  0  0  0  0  2  0  0  0  0
  1  2  1  0        0
  2  3  4  0        0
  3  4  4  0        0
  4  5  4  0        0
  5  6  4  0        0
  6  7  4  0        0
  2  7  4  0        0
  4  8  1  0        0
  3  9  1  0        0
M  END
>  <CAS RN>
87605

>  <SMILES>
Nc1c(c(ccc1)Cl)C

>  <Measured or Estimated Log10(mmol/L)>
-2.358674622

$$$$

CDXL12

  9  9  0  0  0  0  0  0  0  0999 V2000
   -0.3572    0.4125    0.0000 C   0  0  0  0  0  0  0  2  0  0  0  0
    0.3572    0.0000    0.0000 C   0  0  0  0  0  0  0  2  0  0  0  0
    0.3572   -0.8250    0.0000 C   0  0  0  0  0  0  0  2  0  0  0  0
   -0.3572   -1.2375    0.0000 C   0  0  0  0  0  0  0  2  0  0  0  0
   -1.0717   -0.8250    0.0000 C   0  0  0  0  0  0  0  2  0  0  0  0
   -1.0717    0.0000    0.0000 C   0  0  0  0  0  0  0  2  0  0  0  0
    1.0717   -1.2375    0.0000 Cl  0  0  0  0  0  0  0  2  0  0  0  0
    1.0717    0.4125    0.0000 Cl  0  0  0  0  0  0  0  2  0  0  0  0
   -0.3572    1.2375    0.0000 Cl  0  0  0  0  0  0  0  2  0  0  0  0
  1  2  4  0        0
  2  3  4  0        0
  3  4  4  0        0
  4  5  4  0        0
  5  6  4  0        0
  1  6  4  0        0
  3  7  1  0        0
  2  8  1  0        0
  1  9  1  0        0
M  END
>  <CAS RN>
87616

>  <SMILES>
c1(c(c(ccc1)Cl)Cl)Cl

>  <Measured or Estimated Log10(mmol/L)>
-2.41

$$$$

CDXL12

  9  9  0  0  0  0  0  0  0  0999 V2000
    1.0717    0.4125    0.0000 O   0  0  0  0  0  0  0  2  0  0  0  0
    0.3572    0.0000    0.0000 C   0  0  0  0  0  0  0  2  0  0  0  0
    0.3572   -0.8250    0.0000 C   0  0  0  0  0  0  0  2  0  0  0  0
   -0.3572   -1.2375    0.0000 C   0  0  0  0  0  0  0  2  0  0  0  0
   -1.0717   -0.8250    0.0000 C   0  0  0  0  0  0  0  2  0  0  0  0
   -1.0717    0.0000    0.0000 C   0  0  0  0  0  0  0  2  0  0  0  0
   -0.3572    0.4125    0.0000 C   0  0  0  0  0  0  0  2  0  0  0  0
   -0.3572    1.2375    0.0000 Cl  0  0  0  0  0  0  0  2  0  0  0  0
    1.0717   -1.2375    0.0000 Cl  0  0  0  0  0  0  0  2  0  0  0  0
  1  2  1  0        0
  2  3  4  0        0
  3  4  4  0        0
  4  5  4  0        0
  5  6  4  0        0
  6  7  4  0        0
  2  7  4  0        0
  7  8  1  0        0
  3  9  1  0        0
M  END
>  <CAS RN>
87650

>  <SMILES>
Oc1c(cccc1Cl)Cl

>  <Measured or Estimated Log10(mmol/L)>
-1.24

$$$$

CDXL12

 12 12  0  0  0  0  0  0  0  0999 V2000
    1.4289   -0.8250    0.0000 O   0  0  0  0  0  0  0  2  0  0  0  0
    0.7145   -0.4125    0.0000 C   0  0  0  0  0  0  0  2  0  0  0  0
    0.0000   -0.8250    0.0000 C   0  0  0  0  0  0  0  2  0  0  0  0
   -0.7145   -0.4125    0.0000 C   0  0  0  0  0  0  0  2  0  0  0  0
   -0.7145    0.4125    0.0000 C   0  0  0  0  0  0  0  2  0  0  0  0
    0.0000    0.8250    0.0000 C   0  0  0  0  0  0  0  2  0  0  0  0
    0.0000    1.6500    0.0000 Cl  0  0  0  0  0  0  0  2  0  0  0  0
    0.7145    0.4125    0.0000 C   0  0  0  0  0  0  0  2  0  0  0  0
    1.4289    0.8250    0.0000 Cl  0  0  0  0  0  0  0  2  0  0  0  0
   -1.4289    0.8250    0.0000 Cl  0  0  0  0  0  0  0  2  0  0  0  0
   -1.4289   -0.8250    0.0000 Cl  0  0  0  0  0  0  0  2  0  0  0  0
    0.0000   -1.6500    0.0000 Cl  0  0  0  0  0  0  0  2  0  0  0  0
  1  2  1  0        0
  2  3  4  0        0
  3  4  4  0        0
  4  5  4  0        0
  5  6  4  0        0
  6  7  1  0        0
  6  8  4  0        0
  2  8  4  0        0
  8  9  1  0        0
  5 10  1  0        0
  4 11  1  0        0
  3 12  1  0        0
M  END
>  <CAS RN>
87865

>  <SMILES>
Oc1c(c(c(c(Cl)c1Cl)Cl)Cl)Cl

>  <Measured or Estimated Log10(mmol/L)>
-2.425433134

$$$$

CDXL12

 10 10  0  0  0  0  0  0  0  0999 V2000
    1.4289    0.4125    0.0000 O   0  0  0  0  0  0  0  2  0  0  0  0
    0.7145    0.0000    0.0000 C   0  0  0  0  0  0  0  2  0  0  0  0
    0.7145   -0.8250    0.0000 C   0  0  0  0  0  0  0  2  0  0  0  0
    0.0000   -1.2375    0.0000 C   0  0  0  0  0  0  0  2  0  0  0  0
   -0.7145   -0.8250    0.0000 C   0  0  0  0  0  0  0  2  0  0  0  0
   -0.7145    0.0000    0.0000 C   0  0  0  0  0  0  0  2  0  0  0  0
    0.0000    0.4125    0.0000 C   0  0  0  0  0  0  0  2  0  0  0  0
    0.0000    1.2375    0.0000 Cl  0  0  0  0  0  0  0  2  0  0  0  0
   -1.4289   -1.2375    0.0000 Cl  0  0  0  0  0  0  0  2  0  0  0  0
    1.4289   -1.2375    0.0000 Cl  0  0  0  0  0  0  0  2  0  0  0  0
  1  2  1  0        0
  2  3  4  0        0
  3  4  4  0        0
  4  5  4  0        0
  5  6  4  0        0
  6  7  4  0        0
  2  7  4  0        0
  7  8  1  0        0
  5  9  1  0        0
  3 10  1  0        0
M  END
>  <CAS RN>
88062

>  <SMILES>
Oc1c(cc(cc1Cl)Cl)Cl

>  <Measured or Estimated Log10(mmol/L)>
-1.495805737

$$$$

CDXL12

 11 11  0  0  0  0  0  0  0  0999 V2000
    1.4289    0.8250    0.0000 F   0  0  0  0  0  0  0  2  0  0  0  0
    0.7145    0.4125    0.0000 C   0  0  0  0  0  0  0  2  0  0  0  0
    0.7145    1.2375    0.0000 F   0  0  0  0  0  0  0  2  0  0  0  0
    1.4289   -0.0000    0.0000 F   0  0  0  0  0  0  0  2  0  0  0  0
    0.0000    0.0000    0.0000 C   0  0  0  0  0  0  0  2  0  0  0  0
    0.0000   -0.8250    0.0000 C   0  0  0  0  0  0  0  2  0  0  0  0
   -0.7145   -1.2375    0.0000 C   0  0  0  0  0  0  0  2  0  0  0  0
   -1.4289   -0.8250    0.0000 C   0  0  0  0  0  0  0  2  0  0  0  0
   -1.4289    0.0000    0.0000 C   0  0  0  0  0  0  0  2  0  0  0  0
   -0.7145    0.4125    0.0000 C   0  0  0  0  0  0  0  2  0  0  0  0
    0.7145   -1.2375    0.0000 Cl  0  0  0  0  0  0  0  2  0  0  0  0
  1  2  1  0        0
  2  3  1  0        0
  2  4  1  0        0
  2  5  1  0        0
  5  6  4  0        0
  6  7  4  0        0
  7  8  4  0        0
  8  9  4  0        0
  9 10  4  0        0
  5 10  4  0        0
  6 11  1  0        0
M  END
>  <CAS RN>
88164

>  <SMILES>
FC(F)(F)c1c(cccc1)Cl

>  <Measured or Estimated Log10(mmol/L)>
-2.20739389

$$$$

CDXL12

 10 10  0  0  0  0  0  0  0  0999 V2000
   -0.7145    1.2375    0.0000 O   0  0  0  0  0  0  0  2  0  0  0  0
   -0.7145    0.4125    0.0000 N   0  0  0  0  0  0  0  2  0  0  0  0
   -1.4289   -0.0000    0.0000 O   0  0  0  0  0  0  0  2  0  0  0  0
    0.0000   -0.0000    0.0000 C   0  0  0  0  0  0  0  2  0  0  0  0
    0.0000   -0.8250    0.0000 C   0  0  0  0  0  0  0  2  0  0  0  0
    0.7145   -1.2375    0.0000 C   0  0  0  0  0  0  0  2  0  0  0  0
    1.4289   -0.8250    0.0000 C   0  0  0  0  0  0  0  2  0  0  0  0
    1.4289    0.0000    0.0000 C   0  0  0  0  0  0  0  2  0  0  0  0
    0.7145    0.4125    0.0000 C   0  0  0  0  0  0  0  2  0  0  0  0
   -0.7145   -1.2375    0.0000 C   0  0  0  0  0  0  0  2  0  0  0  0
  1  2  2  0        0
  2  3  2  0        0
  2  4  1  0        0
  4  5  4  0        0
  5  6  4  0        0
  6  7  4  0        0
  7  8  4  0        0
  8  9  4  0        0
  4  9  4  0        0
  5 10  1  0        0
M  END
>  <CAS RN>
88722

>  <SMILES>
O=N(=O)c1c(cccc1)C

>  <Measured or Estimated Log10(mmol/L)>
-1.192675139

$$$$

CDXL12

 10 10  0  0  0  0  0  0  0  0999 V2000
   -0.7145    1.2375    0.0000 O   0  0  0  0  0  0  0  2  0  0  0  0
   -0.7145    0.4125    0.0000 N   0  0  0  0  0  0  0  2  0  0  0  0
   -1.4289   -0.0000    0.0000 O   0  0  0  0  0  0  0  2  0  0  0  0
    0.0000   -0.0000    0.0000 C   0  0  0  0  0  0  0  2  0  0  0  0
    0.0000   -0.8250    0.0000 C   0  0  0  0  0  0  0  2  0  0  0  0
    0.7145   -1.2375    0.0000 C   0  0  0  0  0  0  0  2  0  0  0  0
    1.4289   -0.8250    0.0000 C   0  0  0  0  0  0  0  2  0  0  0  0
    1.4289    0.0000    0.0000 C   0  0  0  0  0  0  0  2  0  0  0  0
    0.7145    0.4125    0.0000 C   0  0  0  0  0  0  0  2  0  0  0  0
   -0.7145   -1.2375    0.0000 Cl  0  0  0  0  0  0  0  2  0  0  0  0
  1  2  2  0        0
  2  3  2  0        0
  2  4  1  0        0
  4  5  4  0        0
  5  6  4  0        0
  6  7  4  0        0
  7  8  4  0        0
  8  9  4  0        0
  4  9  4  0        0
  5 10  1  0        0
M  END
>  <CAS RN>
88733

>  <SMILES>
O=N(=O)c1c(cccc1)Cl

>  <Measured or Estimated Log10(mmol/L)>
-0.817223705

$$$$

CDXL12

 10 10  0  0  0  0  0  0  0  0999 V2000
   -0.7145    1.2375    0.0000 O   0  0  0  0  0  0  0  2  0  0  0  0
   -0.7145    0.4125    0.0000 N   0  0  0  0  0  0  0  2  0  0  0  0
   -1.4289   -0.0000    0.0000 O   0  0  0  0  0  0  0  2  0  0  0  0
    0.0000   -0.0000    0.0000 C   0  0  0  0  0  0  0  2  0  0  0  0
    0.0000   -0.8250    0.0000 C   0  0  0  0  0  0  0  2  0  0  0  0
   -0.7145   -1.2375    0.0000 N   0  0  0  0  0  0  0  2  0  0  0  0
    0.7145   -1.2375    0.0000 C   0  0  0  0  0  0  0  2  0  0  0  0
    1.4289   -0.8250    0.0000 C   0  0  0  0  0  0  0  2  0  0  0  0
    1.4289    0.0000    0.0000 C   0  0  0  0  0  0  0  2  0  0  0  0
    0.7145    0.4125    0.0000 C   0  0  0  0  0  0  0  2  0  0  0  0
  1  2  2  0        0
  2  3  2  0        0
  2  4  1  0        0
  4  5  4  0        0
  5  6  1  0        0
  5  7  4  0        0
  7  8  4  0        0
  8  9  4  0        0
  9 10  4  0        0
  4 10  4  0        0
M  END
>  <CAS RN>
88744

>  <SMILES>
O=N(=O)c1c(N)cccc1

>  <Measured or Estimated Log10(mmol/L)>
-0.337501701

$$$$

CDXL12

 10 10  0  0  0  0  0  0  0  0999 V2000
   -0.7145    1.2375    0.0000 O   0  0  0  0  0  0  0  2  0  0  0  0
   -0.7145    0.4125    0.0000 N   0  0  0  0  0  0  0  2  0  0  0  0
   -1.4289   -0.0000    0.0000 O   0  0  0  0  0  0  0  2  0  0  0  0
    0.0000   -0.0000    0.0000 C   0  0  0  0  0  0  0  2  0  0  0  0
    0.0000   -0.8250    0.0000 C   0  0  0  0  0  0  0  2  0  0  0  0
   -0.7145   -1.2375    0.0000 O   0  0  0  0  0  0  0  2  0  0  0  0
    0.7145   -1.2375    0.0000 C   0  0  0  0  0  0  0  2  0  0  0  0
    1.4289   -0.8250    0.0000 C   0  0  0  0  0  0  0  2  0  0  0  0
    1.4289    0.0000    0.0000 C   0  0  0  0  0  0  0  2  0  0  0  0
    0.7145    0.4125    0.0000 C   0  0  0  0  0  0  0  2  0  0  0  0
  1  2  2  0        0
  2  3  2  0        0
  2  4  1  0        0
  4  5  4  0        0
  5  6  1  0        0
  5  7  4  0        0
  7  8  4  0        0
  8  9  4  0        0
  9 10  4  0        0
  4 10  4  0        0
M  END
>  <CAS RN>
88755

>  <SMILES>
O=N(=O)c1c(O)cccc1

>  <Measured or Estimated Log10(mmol/L)>
-0.1084642

$$$$

CDXL12

 17 17  0  0  0  0  0  0  0  0999 V2000
    1.7862    1.8562    0.0000 O   0  0  0  0  0  0  0  2  0  0  0  0
    1.7862    1.0312    0.0000 N   0  0  0  0  0  0  0  2  0  0  0  0
    2.5006    0.6187    0.0000 O   0  0  0  0  0  0  0  2  0  0  0  0
    1.0717    0.6187    0.0000 C   0  0  0  0  0  0  0  2  0  0  0  0
    1.0717   -0.2063    0.0000 C   0  0  0  0  0  0  0  2  0  0  0  0
    0.3572   -0.6188    0.0000 C   0  0  0  0  0  0  0  2  0  0  0  0
    0.3572   -1.4437    0.0000 N   0  0  0  0  0  0  0  2  0  0  0  0
   -0.3572   -1.8562    0.0000 O   0  0  0  0  0  0  0  2  0  0  0  0
    1.0717   -1.8562    0.0000 O   0  0  0  0  0  0  0  2  0  0  0  0
   -0.3572   -0.2063    0.0000 C   0  0  0  0  0  0  0  2  0  0  0  0
   -1.0717   -0.6188    0.0000 O   0  0  0  0  0  0  0  2  0  0  0  0
   -0.3572    0.6187    0.0000 C   0  0  0  0  0  0  0  2  0  0  0  0
   -1.0717    1.0312    0.0000 C   0  0  0  0  0  0  0  2  0  0  0  0
   -1.7862    0.6187    0.0000 C   0  0  0  0  0  0  0  2  0  0  0  0
   -2.5006    1.0312    0.0000 C   0  0  0  0  0  0  0  2  0  0  0  0
   -1.0717    1.8562    0.0000 C   0  0  0  0  0  0  0  2  0  0  0  0
    0.3572    1.0312    0.0000 C   0  0  0  0  0  0  0  2  0  0  0  0
  1  2  2  0        0
  2  3  2  0        0
  2  4  1  0        0
  4  5  4  0        0
  5  6  4  0        0
  6  7  1  0        0
  7  8  2  0        0
  7  9  2  0        0
  6 10  4  0        0
 10 11  1  0        0
 10 12  4  0        0
 12 13  1  0        0
 13 14  1  0        0
 14 15  1  0        0
 13 16  1  0        0
 12 17  4  0        0
  4 17  4  0        0
M  END
>  <CAS RN>
88857

>  <SMILES>
O=N(=O)c1cc(N(=O)=O)c(O)c(C(CC)C)c1

>  <Measured or Estimated Log10(mmol/L)>
-3.000388881

$$$$

CDXL12

 16 16  0  0  0  0  0  0  0  0999 V2000
   -1.4289    1.8562    0.0000 O   0  0  0  0  0  0  0  2  0  0  0  0
   -1.4289    1.0312    0.0000 N   0  0  0  0  0  0  0  2  0  0  0  0
   -2.1434    0.6187    0.0000 O   0  0  0  0  0  0  0  2  0  0  0  0
   -0.7145    0.6187    0.0000 C   0  0  0  0  0  0  0  2  0  0  0  0
   -0.7145   -0.2063    0.0000 C   0  0  0  0  0  0  0  2  0  0  0  0
    0.0000   -0.6188    0.0000 C   0  0  0  0  0  0  0  2  0  0  0  0
    0.0000   -1.4437    0.0000 N   0  0  0  0  0  0  0  2  0  0  0  0
   -0.7145   -1.8562    0.0000 O   0  0  0  0  0  0  0  2  0  0  0  0
    0.7145   -1.8562    0.0000 O   0  0  0  0  0  0  0  2  0  0  0  0
    0.7145   -0.2063    0.0000 C   0  0  0  0  0  0  0  2  0  0  0  0
    1.4289   -0.6188    0.0000 O   0  0  0  0  0  0  0  2  0  0  0  0
    0.7145    0.6187    0.0000 C   0  0  0  0  0  0  0  2  0  0  0  0
    1.4289    1.0312    0.0000 N   0  0  0  0  0  0  0  2  0  0  0  0
    1.4289    1.8562    0.0000 O   0  0  0  0  0  0  0  2  0  0  0  0
    2.1434    0.6187    0.0000 O   0  0  0  0  0  0  0  2  0  0  0  0
    0.0000    1.0312    0.0000 C   0  0  0  0  0  0  0  2  0  0  0  0
  1  2  2  0        0
  2  3  2  0        0
  2  4  1  0        0
  4  5  4  0        0
  5  6  4  0        0
  6  7  1  0        0
  7  8  2  0        0
  7  9  2  0        0
  6 10  4  0        0
 10 11  1  0        0
 10 12  4  0        0
 12 13  1  0        0
 13 14  2  0        0
 13 15  2  0        0
 12 16  4  0        0
  4 16  4  0        0
M  END
>  <CAS RN>
88891

>  <SMILES>
O=N(=O)c1cc(N(=O)=O)c(O)c(N(=O)=O)c1

>  <Measured or Estimated Log10(mmol/L)>
-0.430613746

$$$$

CDXL12

 12 12  0  0  0  0  0  0  0  0999 V2000
    0.7145   -1.6500    0.0000 O   0  0  0  0  0  0  0  2  0  0  0  0
    0.7145   -0.8250    0.0000 C   0  0  0  0  0  0  0  2  0  0  0  0
    1.4289   -0.4125    0.0000 O   0  0  0  0  0  0  0  2  0  0  0  0
    0.0000   -0.4125    0.0000 C   0  0  0  0  0  0  0  2  0  0  0  0
    0.0000    0.4125    0.0000 C   0  0  0  0  0  0  0  2  0  0  0  0
   -0.7145    0.8250    0.0000 C   0  0  0  0  0  0  0  2  0  0  0  0
   -1.4289    0.4125    0.0000 C   0  0  0  0  0  0  0  2  0  0  0  0
   -1.4289   -0.4125    0.0000 C   0  0  0  0  0  0  0  2  0  0  0  0
   -0.7145   -0.8250    0.0000 C   0  0  0  0  0  0  0  2  0  0  0  0
    0.7145    0.8250    0.0000 C   0  0  0  0  0  0  0  2  0  0  0  0
    0.7145    1.6500    0.0000 O   0  0  0  0  0  0  0  2  0  0  0  0
    1.4289    0.4125    0.0000 O   0  0  0  0  0  0  0  2  0  0  0  0
  1  2  2  0        0
  2  3  1  0        0
  2  4  1  0        0
  4  5  4  0        0
  5  6  4  0        0
  6  7  4  0        0
  7  8  4  0        0
  8  9  4  0        0
  4  9  4  0        0
  5 10  1  0        0
 10 11  2  0        0
 10 12  1  0        0
M  END
>  <CAS RN>
88993

>  <SMILES>
O=C(O)c1c(cccc1)C(=O)O

>  <Measured or Estimated Log10(mmol/L)>
1.176589376

$$$$

CDXL12

 11 11  0  0  0  0  0  0  0  0999 V2000
   -1.0717    1.2375    0.0000 O   0  0  0  0  0  0  0  2  0  0  0  0
   -1.0717    0.4125    0.0000 N   0  0  0  0  0  0  0  2  0  0  0  0
   -1.7862    0.0000    0.0000 O   0  0  0  0  0  0  0  2  0  0  0  0
   -0.3572    0.0000    0.0000 C   0  0  0  0  0  0  0  2  0  0  0  0
    0.3572    0.4125    0.0000 C   0  0  0  0  0  0  0  2  0  0  0  0
    1.0717   -0.0000    0.0000 C   0  0  0  0  0  0  0  2  0  0  0  0
    1.7862    0.4125    0.0000 Cl  0  0  0  0  0  0  0  2  0  0  0  0
    1.0717   -0.8250    0.0000 C   0  0  0  0  0  0  0  2  0  0  0  0
    0.3572   -1.2375    0.0000 C   0  0  0  0  0  0  0  2  0  0  0  0
   -0.3572   -0.8250    0.0000 C   0  0  0  0  0  0  0  2  0  0  0  0
   -1.0717   -1.2375    0.0000 C   0  0  0  0  0  0  0  2  0  0  0  0
  1  2  2  0        0
  2  3  2  0        0
  2  4  1  0        0
  4  5  4  0        0
  5  6  4  0        0
  6  7  1  0        0
  6  8  4  0        0
  8  9  4  0        0
  9 10  4  0        0
  4 10  4  0        0
 10 11  1  0        0
M  END
>  <CAS RN>
89598

>  <SMILES>
O=N(=O)c1cc(Cl)ccc1C

>  <Measured or Estimated Log10(mmol/L)>
-1.265991308

$$$$

CDXL12

 11 11  0  0  0  0  0  0  0  0999 V2000
   -1.0717    1.2375    0.0000 O   0  0  0  0  0  0  0  2  0  0  0  0
   -1.0717    0.4125    0.0000 N   0  0  0  0  0  0  0  2  0  0  0  0
   -1.7862   -0.0000    0.0000 O   0  0  0  0  0  0  0  2  0  0  0  0
   -0.3572   -0.0000    0.0000 C   0  0  0  0  0  0  0  2  0  0  0  0
   -0.3572   -0.8250    0.0000 C   0  0  0  0  0  0  0  2  0  0  0  0
   -1.0717   -1.2375    0.0000 N   0  0  0  0  0  0  0  2  0  0  0  0
    0.3572   -1.2375    0.0000 C   0  0  0  0  0  0  0  2  0  0  0  0
    1.0717   -0.8250    0.0000 C   0  0  0  0  0  0  0  2  0  0  0  0
    1.0717    0.0000    0.0000 C   0  0  0  0  0  0  0  2  0  0  0  0
    1.7862    0.4125    0.0000 Cl  0  0  0  0  0  0  0  2  0  0  0  0
    0.3572    0.4125    0.0000 C   0  0  0  0  0  0  0  2  0  0  0  0
  1  2  2  0        0
  2  3  2  0        0
  2  4  1  0        0
  4  5  4  0        0
  5  6  1  0        0
  5  7  4  0        0
  7  8  4  0        0
  8  9  4  0        0
  9 10  1  0        0
  9 11  4  0        0
  4 11  4  0        0
M  END
>  <CAS RN>
89634

>  <SMILES>
O=N(=O)c1c(N)ccc(Cl)c1

>  <Measured or Estimated Log10(mmol/L)>
-1.731817827

$$$$

CDXL12

 11 11  0  0  0  0  0  0  0  0999 V2000
   -1.0717   -1.2375    0.0000 O   0  0  0  0  0  0  0  2  0  0  0  0
   -0.3572   -0.8250    0.0000 C   0  0  0  0  0  0  0  2  0  0  0  0
   -0.3572    0.0000    0.0000 C   0  0  0  0  0  0  0  2  0  0  0  0
    0.3572    0.4125    0.0000 C   0  0  0  0  0  0  0  2  0  0  0  0
    1.0717   -0.0000    0.0000 C   0  0  0  0  0  0  0  2  0  0  0  0
    1.0717   -0.8250    0.0000 C   0  0  0  0  0  0  0  2  0  0  0  0
    1.7862   -1.2375    0.0000 C   0  0  0  0  0  0  0  2  0  0  0  0
    0.3572   -1.2375    0.0000 C   0  0  0  0  0  0  0  2  0  0  0  0
   -1.0717    0.4125    0.0000 C   0  0  0  0  0  0  0  2  0  0  0  0
   -1.0717    1.2375    0.0000 C   0  0  0  0  0  0  0  2  0  0  0  0
   -1.7862    0.0000    0.0000 C   0  0  0  0  0  0  0  2  0  0  0  0
  1  2  1  0        0
  2  3  4  0        0
  3  4  4  0        0
  4  5  4  0        0
  5  6  4  0        0
  6  7  1  0        0
  6  8  4  0        0
  2  8  4  0        0
  3  9  1  0        0
  9 10  1  0        0
  9 11  1  0        0
M  END
>  <CAS RN>
89838

>  <SMILES>
Oc1c(ccc(C)c1)C(C)C

>  <Measured or Estimated Log10(mmol/L)>
-1.517639283

$$$$

CDXL12

  9  9  0  0  0  0  0  0  0  0999 V2000
    1.4289   -0.4125    0.0000 O   0  0  0  0  0  0  0  2  0  0  0  0
    0.7145   -0.8250    0.0000 C   0  0  0  0  0  0  0  2  0  0  0  0
    0.0000   -0.4125    0.0000 C   0  0  0  0  0  0  0  2  0  0  0  0
    0.0000    0.4125    0.0000 C   0  0  0  0  0  0  0  2  0  0  0  0
    0.7145    0.8250    0.0000 O   0  0  0  0  0  0  0  2  0  0  0  0
   -0.7145    0.8250    0.0000 C   0  0  0  0  0  0  0  2  0  0  0  0
   -1.4289    0.4125    0.0000 C   0  0  0  0  0  0  0  2  0  0  0  0
   -1.4289   -0.4125    0.0000 C   0  0  0  0  0  0  0  2  0  0  0  0
   -0.7145   -0.8250    0.0000 C   0  0  0  0  0  0  0  2  0  0  0  0
  1  2  2  0        0
  2  3  1  0        0
  3  4  4  0        0
  4  5  1  0        0
  4  6  4  0        0
  6  7  4  0        0
  7  8  4  0        0
  8  9  4  0        0
  3  9  4  0        0
M  END
>  <CAS RN>
90028

>  <SMILES>
O=Cc1c(O)cccc1

>  <Measured or Estimated Log10(mmol/L)>
-1.474013608

$$$$

CDXL12

  9  9  0  0  0  0  0  0  0  0999 V2000
    0.7145   -0.8250    0.0000 O   0  0  0  0  0  0  0  2  0  0  0  0
    1.4289   -0.4125    0.0000 C   0  0  0  0  0  0  0  2  0  0  0  0
    0.0000   -0.4125    0.0000 C   0  0  0  0  0  0  0  2  0  0  0  0
   -0.7145   -0.8250    0.0000 C   0  0  0  0  0  0  0  2  0  0  0  0
   -1.4289   -0.4125    0.0000 C   0  0  0  0  0  0  0  2  0  0  0  0
   -1.4289    0.4125    0.0000 C   0  0  0  0  0  0  0  2  0  0  0  0
   -0.7145    0.8250    0.0000 C   0  0  0  0  0  0  0  2  0  0  0  0
    0.0000    0.4125    0.0000 C   0  0  0  0  0  0  0  2  0  0  0  0
    0.7145    0.8250    0.0000 N   0  0  0  0  0  0  0  2  0  0  0  0
  1  2  1  0        0
  1  3  1  0        0
  3  4  4  0        0
  4  5  4  0        0
  5  6  4  0        0
  6  7  4  0        0
  7  8  4  0        0
  3  8  4  0        0
  8  9  1  0        0
M  END
>  <CAS RN>
90040

>  <SMILES>
O(C)c1ccccc1N

>  <Measured or Estimated Log10(mmol/L)>
-1.011270803

$$$$

CDXL12

  9  9  0  0  0  0  0  0  0  0999 V2000
    0.7145   -0.8250    0.0000 O   0  0  0  0  0  0  0  2  0  0  0  0
    0.0000   -0.4125    0.0000 C   0  0  0  0  0  0  0  2  0  0  0  0
    0.0000    0.4125    0.0000 C   0  0  0  0  0  0  0  2  0  0  0  0
    0.7145    0.8250    0.0000 O   0  0  0  0  0  0  0  2  0  0  0  0
   -0.7145    0.8250    0.0000 C   0  0  0  0  0  0  0  2  0  0  0  0
   -1.4289    0.4125    0.0000 C   0  0  0  0  0  0  0  2  0  0  0  0
   -1.4289   -0.4125    0.0000 C   0  0  0  0  0  0  0  2  0  0  0  0
   -0.7145   -0.8250    0.0000 C   0  0  0  0  0  0  0  2  0  0  0  0
    1.4289   -0.4125    0.0000 C   0  0  0  0  0  0  0  2  0  0  0  0
  1  2  1  0        0
  2  3  4  0        0
  3  4  1  0        0
  3  5  4  0        0
  5  6  4  0        0
  6  7  4  0        0
  7  8  4  0        0
  2  8  4  0        0
  1  9  1  0        0
M  END
>  <CAS RN>
90051

>  <SMILES>
O(c1c(O)cccc1)C

>  <Measured or Estimated Log10(mmol/L)>
-0.680608479

$$$$

CDXL12

 11 12  0  0  0  0  0  0  0  0999 V2000
    0.0000   -0.8250    0.0000 C   0  0  0  0  0  0  0  2  0  0  0  0
    0.0000    0.0000    0.0000 C   0  0  0  0  0  0  0  2  0  0  0  0
    0.7145    0.4125    0.0000 C   0  0  0  0  0  0  0  2  0  0  0  0
    1.4289    0.0000    0.0000 C   0  0  0  0  0  0  0  2  0  0  0  0
    1.4289   -0.8250    0.0000 C   0  0  0  0  0  0  0  2  0  0  0  0
    0.7145   -1.2375    0.0000 C   0  0  0  0  0  0  0  2  0  0  0  0
    0.7145    1.2375    0.0000 C   0  0  0  0  0  0  0  2  0  0  0  0
   -0.7145    0.4125    0.0000 C   0  0  0  0  0  0  0  2  0  0  0  0
   -1.4289   -0.0000    0.0000 C   0  0  0  0  0  0  0  2  0  0  0  0
   -1.4289   -0.8250    0.0000 C   0  0  0  0  0  0  0  2  0  0  0  0
   -0.7145   -1.2375    0.0000 C   0  0  0  0  0  0  0  2  0  0  0  0
  1  2  4  0        0
  2  3  4  0        0
  3  4  4  0        0
  4  5  4  0        0
  5  6  4  0        0
  1  6  4  0        0
  3  7  1  0        0
  2  8  4  0        0
  8  9  4  0        0
  9 10  4  0        0
 10 11  4  0        0
  1 11  4  0        0
M  END
>  <CAS RN>
90120

>  <SMILES>
c12c(c(ccc1)C)cccc2

>  <Measured or Estimated Log10(mmol/L)>
-2

$$$$

CDXL12

 11 12  0  0  0  0  0  0  0  0999 V2000
    0.7145    1.2375    0.0000 Cl  0  0  0  0  0  0  0  2  0  0  0  0
    0.7145    0.4125    0.0000 C   0  0  0  0  0  0  0  2  0  0  0  0
    1.4289   -0.0000    0.0000 C   0  0  0  0  0  0  0  2  0  0  0  0
    1.4289   -0.8250    0.0000 C   0  0  0  0  0  0  0  2  0  0  0  0
    0.7145   -1.2375    0.0000 C   0  0  0  0  0  0  0  2  0  0  0  0
    0.0000   -0.8250    0.0000 C   0  0  0  0  0  0  0  2  0  0  0  0
   -0.7145   -1.2375    0.0000 C   0  0  0  0  0  0  0  2  0  0  0  0
   -1.4289   -0.8250    0.0000 C   0  0  0  0  0  0  0  2  0  0  0  0
   -1.4289    0.0000    0.0000 C   0  0  0  0  0  0  0  2  0  0  0  0
   -0.7145    0.4125    0.0000 C   0  0  0  0  0  0  0  2  0  0  0  0
    0.0000    0.0000    0.0000 C   0  0  0  0  0  0  0  2  0  0  0  0
  1  2  1  0        0
  2  3  4  0        0
  3  4  4  0        0
  4  5  4  0        0
  5  6  4  0        0
  6  7  4  0        0
  7  8  4  0        0
  8  9  4  0        0
  9 10  4  0        0
 10 11  4  0        0
  2 11  4  0        0
  6 11  4  0        0
M  END
>  <CAS RN>
90131

>  <SMILES>
Clc1cccc2ccccc12

>  <Measured or Estimated Log10(mmol/L)>
-2.007051303

$$$$

CDXL12

 17 19  0  0  0  0  0  0  0  0999 V2000
   -1.4289   -2.0625    0.0000 C   0  0  0  0  0  0  0  2  0  0  0  0
   -2.1434   -1.6500    0.0000 C   0  0  0  0  0  0  0  2  0  0  0  0
   -2.1434   -0.8250    0.0000 C   0  0  0  0  0  0  0  2  0  0  0  0
   -1.4289   -0.4125    0.0000 C   0  0  0  0  0  0  0  2  0  0  0  0
   -0.7145   -0.8250    0.0000 C   0  0  0  0  0  0  0  2  0  0  0  0
   -0.7145   -1.6500    0.0000 C   0  0  0  0  0  0  0  2  0  0  0  0
    0.0000   -2.0625    0.0000 C   0  0  0  0  0  0  0  2  0  0  0  0
    0.7145   -1.6500    0.0000 C   0  0  0  0  0  0  0  2  0  0  0  0
    0.7145   -0.8250    0.0000 C   0  0  0  0  0  0  0  2  0  0  0  0
    0.0000   -0.4125    0.0000 C   0  0  0  0  0  0  0  2  0  0  0  0
    0.0000    0.4125    0.0000 N   0  0  0  0  0  0  0  2  0  0  0  0
    0.7145    0.8250    0.0000 C   0  0  0  0  0  0  0  2  0  0  0  0
    0.7145    1.6500    0.0000 C   0  0  0  0  0  0  0  2  0  0  0  0
    1.4289    2.0625    0.0000 C   0  0  0  0  0  0  0  2  0  0  0  0
    2.1434    1.6500    0.0000 C   0  0  0  0  0  0  0  2  0  0  0  0
    2.1434    0.8250    0.0000 C   0  0  0  0  0  0  0  2  0  0  0  0
    1.4289    0.4125    0.0000 C   0  0  0  0  0  0  0  2  0  0  0  0
  1  2  4  0        0
  2  3  4  0        0
  3  4  4  0        0
  4  5  4  0        0
  5  6  4  0        0
  1  6  4  0        0
  6  7  4  0        0
  7  8  4  0        0
  8  9  4  0        0
  9 10  4  0        0
  5 10  4  0        0
 10 11  1  0        0
 11 12  1  0        0
 12 13  4  0        0
 13 14  4  0        0
 14 15  4  0        0
 15 16  4  0        0
 16 17  4  0        0
 12 17  4  0        0
M  END
>  <CAS RN>
90302

>  <SMILES>
c1cccc2c1cccc2Nc1ccccc1

>  <Measured or Estimated Log10(mmol/L)>
-2.863891622

$$$$

CDXL12

 13 14  0  0  0  0  0  0  0  0999 V2000
    0.3572    1.4438    0.0000 O   0  0  0  0  0  0  0  2  0  0  0  0
   -0.3572    1.0313    0.0000 C   0  0  0  0  0  0  0  2  0  0  0  0
   -0.3572    0.2062    0.0000 C   0  0  0  0  0  0  0  2  0  0  0  0
    0.3572   -0.2062    0.0000 C   0  0  0  0  0  0  0  2  0  0  0  0
    1.0717    0.2062    0.0000 C   0  0  0  0  0  0  0  2  0  0  0  0
    1.7862   -0.2062    0.0000 C   0  0  0  0  0  0  0  2  0  0  0  0
    1.7862   -1.0313    0.0000 C   0  0  0  0  0  0  0  2  0  0  0  0
    1.0717   -1.4438    0.0000 C   0  0  0  0  0  0  0  2  0  0  0  0
    0.3572   -1.0313    0.0000 C   0  0  0  0  0  0  0  2  0  0  0  0
   -1.0717   -0.2062    0.0000 C   0  0  0  0  0  0  0  2  0  0  0  0
   -1.7862    0.2062    0.0000 C   0  0  0  0  0  0  0  2  0  0  0  0
   -1.7862    1.0313    0.0000 C   0  0  0  0  0  0  0  2  0  0  0  0
   -1.0717    1.4438    0.0000 C   0  0  0  0  0  0  0  2  0  0  0  0
  1  2  1  0        0
  2  3  4  0        0
  3  4  1  0        0
  4  5  4  0        0
  5  6  4  0        0
  6  7  4  0        0
  7  8  4  0        0
  8  9  4  0        0
  4  9  4  0        0
  3 10  4  0        0
 10 11  4  0        0
 11 12  4  0        0
 12 13  4  0        0
  2 13  4  0        0
M  END
>  <CAS RN>
90437

>  <SMILES>
Oc1c(c2ccccc2)cccc1

>  <Measured or Estimated Log10(mmol/L)>
-2.379729275

$$$$

CDXL12

 10 11  0  0  0  0  0  0  0  0999 V2000
    0.0000   -0.4125    0.0000 C   0  0  0  0  0  0  0  2  0  0  0  0
    0.0000    0.4125    0.0000 C   0  0  0  0  0  0  0  2  0  0  0  0
    0.7145    0.8250    0.0000 C   0  0  0  0  0  0  0  2  0  0  0  0
    1.4289    0.4125    0.0000 C   0  0  0  0  0  0  0  2  0  0  0  0
    1.4289   -0.4125    0.0000 C   0  0  0  0  0  0  0  2  0  0  0  0
    0.7145   -0.8250    0.0000 C   0  0  0  0  0  0  0  2  0  0  0  0
   -0.7145    0.8250    0.0000 C   0  0  0  0  0  0  0  2  0  0  0  0
   -1.4289    0.4125    0.0000 C   0  0  0  0  0  0  0  2  0  0  0  0
   -1.4289   -0.4125    0.0000 C   0  0  0  0  0  0  0  2  0  0  0  0
   -0.7145   -0.8250    0.0000 C   0  0  0  0  0  0  0  2  0  0  0  0
  1  2  1  0        0
  2  3  1  0        0
  3  4  1  0        0
  4  5  1  0        0
  5  6  1  0        0
  1  6  1  0        0
  2  7  1  0        0
  7  8  1  0        0
  8  9  1  0        0
  9 10  1  0        0
  1 10  1  0        0
M  END
>  <CAS RN>
91178

>  <SMILES>
C12C(CCCC1)CCCC2

>  <Measured or Estimated Log10(mmol/L)>
-1.74

$$$$

CDXL12

 10 11  0  0  0  0  0  0  0  0999 V2000
    0.0000   -0.4125    0.0000 C   0  0  0  0  0  0  0  2  0  0  0  0
    0.0000    0.4125    0.0000 C   0  0  0  0  0  0  0  2  0  0  0  0
    0.7145    0.8250    0.0000 C   0  0  0  0  0  0  0  2  0  0  0  0
    1.4289    0.4125    0.0000 C   0  0  0  0  0  0  0  2  0  0  0  0
    1.4289   -0.4125    0.0000 C   0  0  0  0  0  0  0  2  0  0  0  0
    0.7145   -0.8250    0.0000 C   0  0  0  0  0  0  0  2  0  0  0  0
   -0.7145    0.8250    0.0000 C   0  0  0  0  0  0  0  2  0  0  0  0
   -1.4289    0.4125    0.0000 C   0  0  0  0  0  0  0  2  0  0  0  0
   -1.4289   -0.4125    0.0000 C   0  0  0  0  0  0  0  2  0  0  0  0
   -0.7145   -0.8250    0.0000 C   0  0  0  0  0  0  0  2  0  0  0  0
  1  2  4  0        0
  2  3  4  0        0
  3  4  4  0        0
  4  5  4  0        0
  5  6  4  0        0
  1  6  4  0        0
  2  7  4  0        0
  7  8  4  0        0
  8  9  4  0        0
  9 10  4  0        0
  1 10  4  0        0
M  END
>  <CAS RN>
91203

>  <SMILES>
c12c(cccc1)cccc2

>  <Measured or Estimated Log10(mmol/L)>
-1.173301487

$$$$

CDXL12

 10 11  0  0  0  0  0  0  0  0999 V2000
   -0.7145   -0.8250    0.0000 C   0  0  0  0  0  0  0  2  0  0  0  0
   -1.4289   -0.4125    0.0000 C   0  0  0  0  0  0  0  2  0  0  0  0
   -1.4289    0.4125    0.0000 C   0  0  0  0  0  0  0  2  0  0  0  0
   -0.7145    0.8250    0.0000 C   0  0  0  0  0  0  0  2  0  0  0  0
    0.0000    0.4125    0.0000 C   0  0  0  0  0  0  0  2  0  0  0  0
    0.0000   -0.4125    0.0000 C   0  0  0  0  0  0  0  2  0  0  0  0
    0.7145   -0.8250    0.0000 C   0  0  0  0  0  0  0  2  0  0  0  0
    1.4289   -0.4125    0.0000 C   0  0  0  0  0  0  0  2  0  0  0  0
    1.4289    0.4125    0.0000 C   0  0  0  0  0  0  0  2  0  0  0  0
    0.7145    0.8250    0.0000 N   0  0  0  0  0  0  0  2  0  0  0  0
  1  2  4  0        0
  2  3  4  0        0
  3  4  4  0        0
  4  5  4  0        0
  5  6  4  0        0
  1  6  4  0        0
  6  7  4  0        0
  7  8  4  0        0
  8  9  4  0        0
  9 10  4  0        0
  5 10  4  0        0
M  END
>  <CAS RN>
91225

>  <SMILES>
c1cccc2c1cccn2

>  <Measured or Estimated Log10(mmol/L)>
-0.573315666

$$$$

CDXL12

 11 12  0  0  0  0  0  0  0  0999 V2000
   -0.3572    0.4125    0.0000 C   0  0  0  0  0  0  0  2  0  0  0  0
   -0.3572   -0.4125    0.0000 C   0  0  0  0  0  0  0  2  0  0  0  0
    0.3572   -0.8250    0.0000 C   0  0  0  0  0  0  0  2  0  0  0  0
    1.0717   -0.4125    0.0000 C   0  0  0  0  0  0  0  2  0  0  0  0
    1.0717    0.4125    0.0000 C   0  0  0  0  0  0  0  2  0  0  0  0
    1.7862    0.8250    0.0000 C   0  0  0  0  0  0  0  2  0  0  0  0
    0.3572    0.8250    0.0000 C   0  0  0  0  0  0  0  2  0  0  0  0
   -1.0717   -0.8250    0.0000 C   0  0  0  0  0  0  0  2  0  0  0  0
   -1.7862   -0.4125    0.0000 C   0  0  0  0  0  0  0  2  0  0  0  0
   -1.7862    0.4125    0.0000 C   0  0  0  0  0  0  0  2  0  0  0  0
   -1.0717    0.8250    0.0000 C   0  0  0  0  0  0  0  2  0  0  0  0
  1  2  4  0        0
  2  3  4  0        0
  3  4  4  0        0
  4  5  4  0        0
  5  6  1  0        0
  5  7  4  0        0
  1  7  4  0        0
  2  8  4  0        0
  8  9  4  0        0
  9 10  4  0        0
 10 11  4  0        0
  1 11  4  0        0
M  END
>  <CAS RN>
91576

>  <SMILES>
c12c(ccc(C)c1)cccc2

>  <Measured or Estimated Log10(mmol/L)>
-1.98

$$$$

CDXL12

 11 12  0  0  0  0  0  0  0  0999 V2000
   -0.3572    0.4125    0.0000 C   0  0  0  0  0  0  0  2  0  0  0  0
   -0.3572   -0.4125    0.0000 C   0  0  0  0  0  0  0  2  0  0  0  0
    0.3572   -0.8250    0.0000 C   0  0  0  0  0  0  0  2  0  0  0  0
    1.0717   -0.4125    0.0000 C   0  0  0  0  0  0  0  2  0  0  0  0
    1.0717    0.4125    0.0000 C   0  0  0  0  0  0  0  2  0  0  0  0
    1.7862    0.8250    0.0000 Cl  0  0  0  0  0  0  0  2  0  0  0  0
    0.3572    0.8250    0.0000 C   0  0  0  0  0  0  0  2  0  0  0  0
   -1.0717   -0.8250    0.0000 C   0  0  0  0  0  0  0  2  0  0  0  0
   -1.7862   -0.4125    0.0000 C   0  0  0  0  0  0  0  2  0  0  0  0
   -1.7862    0.4125    0.0000 C   0  0  0  0  0  0  0  2  0  0  0  0
   -1.0717    0.8250    0.0000 C   0  0  0  0  0  0  0  2  0  0  0  0
  1  2  4  0        0
  2  3  4  0        0
  3  4  4  0        0
  4  5  4  0        0
  5  6  1  0        0
  5  7  4  0        0
  1  7  4  0        0
  2  8  4  0        0
  8  9  4  0        0
  9 10  4  0        0
 10 11  4  0        0
  1 11  4  0        0
M  END
>  <CAS RN>
91587

>  <SMILES>
c12c(ccc(Cl)c1)cccc2

>  <Measured or Estimated Log10(mmol/L)>
-2

$$$$

CDXL12

 11 12  0  0  0  0  0  0  0  0999 V2000
   -1.7862    0.4125    0.0000 C   0  0  0  0  0  0  0  2  0  0  0  0
   -1.0717    0.8250    0.0000 C   0  0  0  0  0  0  0  2  0  0  0  0
   -0.3572    0.4125    0.0000 C   0  0  0  0  0  0  0  2  0  0  0  0
    0.3572    0.8250    0.0000 O   0  0  0  0  0  0  0  2  0  0  0  0
    1.0717    0.4125    0.0000 C   0  0  0  0  0  0  0  2  0  0  0  0
    1.7862    0.8250    0.0000 O   0  0  0  0  0  0  0  2  0  0  0  0
    1.0717   -0.4125    0.0000 C   0  0  0  0  0  0  0  2  0  0  0  0
    0.3572   -0.8250    0.0000 C   0  0  0  0  0  0  0  2  0  0  0  0
   -0.3572   -0.4125    0.0000 C   0  0  0  0  0  0  0  2  0  0  0  0
   -1.0717   -0.8250    0.0000 C   0  0  0  0  0  0  0  2  0  0  0  0
   -1.7862   -0.4125    0.0000 C   0  0  0  0  0  0  0  2  0  0  0  0
  1  2  4  0        0
  2  3  4  0        0
  3  4  1  0        0
  4  5  1  0        0
  5  6  2  0        0
  5  7  1  0        0
  7  8  2  0        0
  8  9  1  0        0
  3  9  4  0        0
  9 10  4  0        0
 10 11  4  0        0
  1 11  4  0        0
M  END
>  <CAS RN>
91645

>  <SMILES>
c1cc2OC(=O)\C=C/c2cc1

>  <Measured or Estimated Log10(mmol/L)>
-1.034450193

$$$$

CDXL12

 12 13  0  0  0  0  0  0  0  0999 V2000
   -0.3572   -0.2063    0.0000 C   0  0  0  0  0  0  0  2  0  0  0  0
    0.3572    0.2062    0.0000 C   0  0  0  0  0  0  0  2  0  0  0  0
    0.3572    1.0312    0.0000 C   0  0  0  0  0  0  0  2  0  0  0  0
    1.0717    1.4437    0.0000 C   0  0  0  0  0  0  0  2  0  0  0  0
    1.7862    1.0312    0.0000 C   0  0  0  0  0  0  0  2  0  0  0  0
    1.7862    0.2062    0.0000 C   0  0  0  0  0  0  0  2  0  0  0  0
    1.0717   -0.2063    0.0000 C   0  0  0  0  0  0  0  2  0  0  0  0
   -0.3572   -1.0313    0.0000 C   0  0  0  0  0  0  0  2  0  0  0  0
   -1.0717   -1.4437    0.0000 C   0  0  0  0  0  0  0  2  0  0  0  0
   -1.7862   -1.0313    0.0000 C   0  0  0  0  0  0  0  2  0  0  0  0
   -1.7862   -0.2063    0.0000 C   0  0  0  0  0  0  0  2  0  0  0  0
   -1.0717    0.2062    0.0000 C   0  0  0  0  0  0  0  2  0  0  0  0
  1  2  1  0        0
  2  3  4  0        0
  3  4  4  0        0
  4  5  4  0        0
  5  6  4  0        0
  6  7  4  0        0
  2  7  4  0        0
  1  8  4  0        0
  8  9  4  0        0
  9 10  4  0        0
 10 11  4  0        0
 11 12  4  0        0
  1 12  4  0        0
M  END
>  <CAS RN>
92524

>  <SMILES>
c1(c2ccccc2)ccccc1

>  <Measured or Estimated Log10(mmol/L)>
-1.865898875

$$$$

CDXL12

 13 14  0  0  0  0  0  0  0  0999 V2000
    2.1434    1.4437    0.0000 O   0  0  0  0  0  0  0  2  0  0  0  0
    1.4289    1.0312    0.0000 C   0  0  0  0  0  0  0  2  0  0  0  0
    1.4289    0.2062    0.0000 C   0  0  0  0  0  0  0  2  0  0  0  0
    0.7145   -0.2062    0.0000 C   0  0  0  0  0  0  0  2  0  0  0  0
    0.0000    0.2062    0.0000 C   0  0  0  0  0  0  0  2  0  0  0  0
   -0.7145   -0.2062    0.0000 C   0  0  0  0  0  0  0  2  0  0  0  0
   -0.7145   -1.0312    0.0000 C   0  0  0  0  0  0  0  2  0  0  0  0
   -1.4289   -1.4437    0.0000 C   0  0  0  0  0  0  0  2  0  0  0  0
   -2.1434   -1.0312    0.0000 C   0  0  0  0  0  0  0  2  0  0  0  0
   -2.1434   -0.2062    0.0000 C   0  0  0  0  0  0  0  2  0  0  0  0
   -1.4289    0.2062    0.0000 C   0  0  0  0  0  0  0  2  0  0  0  0
    0.0000    1.0312    0.0000 C   0  0  0  0  0  0  0  2  0  0  0  0
    0.7145    1.4437    0.0000 C   0  0  0  0  0  0  0  2  0  0  0  0
  1  2  1  0        0
  2  3  4  0        0
  3  4  4  0        0
  4  5  4  0        0
  5  6  1  0        0
  6  7  4  0        0
  7  8  4  0        0
  8  9  4  0        0
  9 10  4  0        0
 10 11  4  0        0
  6 11  4  0        0
  5 12  4  0        0
 12 13  4  0        0
  2 13  4  0        0
M  END
>  <CAS RN>
92693

>  <SMILES>
Oc1ccc(c2ccccc2)cc1

>  <Measured or Estimated Log10(mmol/L)>
-1.667506538

$$$$

CDXL12

 14 16  0  0  0  0  0  0  0  0999 V2000
    0.7145    0.4125    0.0000 C   0  0  0  0  0  0  0  2  0  0  0  0
    1.4289    0.8250    0.0000 C   0  0  0  0  0  0  0  2  0  0  0  0
    2.1434    0.4125    0.0000 C   0  0  0  0  0  0  0  2  0  0  0  0
    2.1434   -0.4125    0.0000 C   0  0  0  0  0  0  0  2  0  0  0  0
    1.4289   -0.8250    0.0000 C   0  0  0  0  0  0  0  2  0  0  0  0
    0.7145   -0.4125    0.0000 C   0  0  0  0  0  0  0  2  0  0  0  0
    0.0000   -0.8250    0.0000 O   0  0  0  0  0  0  0  2  0  0  0  0
   -0.7145   -0.4125    0.0000 C   0  0  0  0  0  0  0  2  0  0  0  0
   -1.4289   -0.8250    0.0000 C   0  0  0  0  0  0  0  2  0  0  0  0
   -2.1434   -0.4125    0.0000 C   0  0  0  0  0  0  0  2  0  0  0  0
   -2.1434    0.4125    0.0000 C   0  0  0  0  0  0  0  2  0  0  0  0
   -1.4289    0.8250    0.0000 C   0  0  0  0  0  0  0  2  0  0  0  0
   -0.7145    0.4125    0.0000 C   0  0  0  0  0  0  0  2  0  0  0  0
    0.0000    0.8250    0.0000 C   0  0  0  0  0  0  0  2  0  0  0  0
  1  2  4  0        0
  2  3  4  0        0
  3  4  4  0        0
  4  5  4  0        0
  5  6  4  0        0
  1  6  4  0        0
  6  7  1  0        0
  7  8  1  0        0
  8  9  4  0        0
  9 10  4  0        0
 10 11  4  0        0
 11 12  4  0        0
 12 13  4  0        0
  8 13  4  0        0
 13 14  1  0        0
  1 14  1  0        0
M  END
>  <CAS RN>
92831

>  <SMILES>
c12ccccc1Oc1ccccc1C2

>  <Measured or Estimated Log10(mmol/L)>
-0.953104771

$$$$

CDXL12

 14 15  0  0  0  0  0  0  0  0999 V2000
    2.5006    1.4437    0.0000 N   0  0  0  0  0  0  0  2  0  0  0  0
    1.7862    1.0312    0.0000 C   0  0  0  0  0  0  0  2  0  0  0  0
    1.7862    0.2062    0.0000 C   0  0  0  0  0  0  0  2  0  0  0  0
    1.0717   -0.2062    0.0000 C   0  0  0  0  0  0  0  2  0  0  0  0
    0.3572    0.2062    0.0000 C   0  0  0  0  0  0  0  2  0  0  0  0
   -0.3572   -0.2062    0.0000 C   0  0  0  0  0  0  0  2  0  0  0  0
   -0.3572   -1.0312    0.0000 C   0  0  0  0  0  0  0  2  0  0  0  0
   -1.0717   -1.4437    0.0000 C   0  0  0  0  0  0  0  2  0  0  0  0
   -1.7862   -1.0312    0.0000 C   0  0  0  0  0  0  0  2  0  0  0  0
   -2.5006   -1.4437    0.0000 N   0  0  0  0  0  0  0  2  0  0  0  0
   -1.7862   -0.2062    0.0000 C   0  0  0  0  0  0  0  2  0  0  0  0
   -1.0717    0.2062    0.0000 C   0  0  0  0  0  0  0  2  0  0  0  0
    0.3572    1.0312    0.0000 C   0  0  0  0  0  0  0  2  0  0  0  0
    1.0717    1.4437    0.0000 C   0  0  0  0  0  0  0  2  0  0  0  0
  1  2  1  0        0
  2  3  4  0        0
  3  4  4  0        0
  4  5  4  0        0
  5  6  1  0        0
  6  7  4  0        0
  7  8  4  0        0
  8  9  4  0        0
  9 10  1  0        0
  9 11  4  0        0
 11 12  4  0        0
  6 12  4  0        0
  5 13  4  0        0
 13 14  4  0        0
  2 14  4  0        0
M  END
>  <CAS RN>
92875

>  <SMILES>
Nc1ccc(c2ccc(N)cc2)cc1

>  <Measured or Estimated Log10(mmol/L)>
-2.48723738

$$$$

CDXL12

 12 12  0  0  0  0  0  0  0  0999 V2000
    2.1434   -0.4125    0.0000 O   0  0  0  0  0  0  0  2  0  0  0  0
    1.4289   -0.8250    0.0000 C   0  0  0  0  0  0  0  2  0  0  0  0
    0.7145   -0.4125    0.0000 C   0  0  0  0  0  0  0  2  0  0  0  0
    0.7145    0.4125    0.0000 C   0  0  0  0  0  0  0  2  0  0  0  0
    1.4289    0.8250    0.0000 O   0  0  0  0  0  0  0  2  0  0  0  0
    2.1434    0.4125    0.0000 C   0  0  0  0  0  0  0  2  0  0  0  0
    0.0000    0.8250    0.0000 C   0  0  0  0  0  0  0  2  0  0  0  0
   -0.7145    0.4125    0.0000 C   0  0  0  0  0  0  0  2  0  0  0  0
   -0.7145   -0.4125    0.0000 C   0  0  0  0  0  0  0  2  0  0  0  0
   -1.4289   -0.8250    0.0000 O   0  0  0  0  0  0  0  2  0  0  0  0
   -2.1434   -0.4125    0.0000 C   0  0  0  0  0  0  0  2  0  0  0  0
    0.0000   -0.8250    0.0000 C   0  0  0  0  0  0  0  2  0  0  0  0
  1  2  2  0        0
  2  3  1  0        0
  3  4  4  0        0
  4  5  1  0        0
  5  6  1  0        0
  4  7  4  0        0
  7  8  4  0        0
  8  9  4  0        0
  9 10  1  0        0
 10 11  1  0        0
  9 12  4  0        0
  3 12  4  0        0
M  END
>  <CAS RN>
93027

>  <SMILES>
O=Cc1c(OC)ccc(OC)c1

>  <Measured or Estimated Log10(mmol/L)>
-0.970148288

$$$$

CDXL12

 14 14  0  0  0  0  0  0  0  0999 V2000
    1.7862    1.2375    0.0000 O   0  0  0  0  0  0  0  2  0  0  0  0
    1.7862    0.4125    0.0000 C   0  0  0  0  0  0  0  2  0  0  0  0
    2.5006    0.0000    0.0000 O   0  0  0  0  0  0  0  2  0  0  0  0
    1.0717    0.0000    0.0000 C   0  0  0  0  0  0  0  2  0  0  0  0
    0.3572    0.4125    0.0000 O   0  0  0  0  0  0  0  2  0  0  0  0
   -0.3572    0.0000    0.0000 C   0  0  0  0  0  0  0  2  0  0  0  0
   -0.3572   -0.8250    0.0000 C   0  0  0  0  0  0  0  2  0  0  0  0
   -1.0717   -1.2375    0.0000 C   0  0  0  0  0  0  0  2  0  0  0  0
   -1.7862   -0.8250    0.0000 C   0  0  0  0  0  0  0  2  0  0  0  0
   -1.7862   -0.0000    0.0000 C   0  0  0  0  0  0  0  2  0  0  0  0
   -2.5006    0.4125    0.0000 Cl  0  0  0  0  0  0  0  2  0  0  0  0
   -1.0717    0.4125    0.0000 C   0  0  0  0  0  0  0  2  0  0  0  0
   -2.5006   -1.2375    0.0000 Cl  0  0  0  0  0  0  0  2  0  0  0  0
    0.3572   -1.2375    0.0000 Cl  0  0  0  0  0  0  0  2  0  0  0  0
  1  2  2  0        0
  2  3  1  0        0
  2  4  1  0        0
  4  5  1  0        0
  5  6  1  0        0
  6  7  4  0        0
  7  8  4  0        0
  8  9  4  0        0
  9 10  4  0        0
 10 11  1  0        0
 10 12  4  0        0
  6 12  4  0        0
  9 13  1  0        0
  7 14  1  0        0
M  END
>  <CAS RN>
93765

>  <SMILES>
O=C(O)COc1c(cc(c(Cl)c1)Cl)Cl

>  <Measured or Estimated Log10(mmol/L)>
-1.177102686

$$$$

CDXL12

 11 11  0  0  0  0  0  0  0  0999 V2000
    0.0000    1.2375    0.0000 O   0  0  0  0  0  0  0  2  0  0  0  0
    0.0000    0.4125    0.0000 C   0  0  0  0  0  0  0  2  0  0  0  0
    0.7145   -0.0000    0.0000 O   0  0  0  0  0  0  0  2  0  0  0  0
    1.4289    0.4125    0.0000 C   0  0  0  0  0  0  0  2  0  0  0  0
    2.1434   -0.0000    0.0000 C   0  0  0  0  0  0  0  2  0  0  0  0
   -0.7145   -0.0000    0.0000 C   0  0  0  0  0  0  0  2  0  0  0  0
   -0.7145   -0.8250    0.0000 C   0  0  0  0  0  0  0  2  0  0  0  0
   -1.4289   -1.2375    0.0000 C   0  0  0  0  0  0  0  2  0  0  0  0
   -2.1434   -0.8250    0.0000 C   0  0  0  0  0  0  0  2  0  0  0  0
   -2.1434   -0.0000    0.0000 C   0  0  0  0  0  0  0  2  0  0  0  0
   -1.4289    0.4125    0.0000 C   0  0  0  0  0  0  0  2  0  0  0  0
  1  2  2  0        0
  2  3  1  0        0
  3  4  1  0        0
  4  5  1  0        0
  2  6  1  0        0
  6  7  4  0        0
  7  8  4  0        0
  8  9  4  0        0
  9 10  4  0        0
 10 11  4  0        0
  6 11  4  0        0
M  END
>  <CAS RN>
93890

>  <SMILES>
O=C(OCC)c1ccccc1

>  <Measured or Estimated Log10(mmol/L)>
-1.3002207

$$$$

CDXL12

 13 13  0  0  0  0  0  0  0  0999 V2000
    1.7862    1.2375    0.0000 O   0  0  0  0  0  0  0  2  0  0  0  0
    1.7862    0.4125    0.0000 C   0  0  0  0  0  0  0  2  0  0  0  0
    2.5006    0.0000    0.0000 O   0  0  0  0  0  0  0  2  0  0  0  0
    1.0717    0.0000    0.0000 C   0  0  0  0  0  0  0  2  0  0  0  0
    0.3572    0.4125    0.0000 O   0  0  0  0  0  0  0  2  0  0  0  0
   -0.3572    0.0000    0.0000 C   0  0  0  0  0  0  0  2  0  0  0  0
   -0.3572   -0.8250    0.0000 C   0  0  0  0  0  0  0  2  0  0  0  0
   -1.0717   -1.2375    0.0000 C   0  0  0  0  0  0  0  2  0  0  0  0
   -1.7862   -0.8250    0.0000 C   0  0  0  0  0  0  0  2  0  0  0  0
   -1.7862   -0.0000    0.0000 C   0  0  0  0  0  0  0  2  0  0  0  0
   -1.0717    0.4125    0.0000 C   0  0  0  0  0  0  0  2  0  0  0  0
   -2.5006   -1.2375    0.0000 Cl  0  0  0  0  0  0  0  2  0  0  0  0
    0.3572   -1.2375    0.0000 C   0  0  0  0  0  0  0  2  0  0  0  0
  1  2  2  0        0
  2  3  1  0        0
  2  4  1  0        0
  4  5  1  0        0
  5  6  1  0        0
  6  7  4  0        0
  7  8  4  0        0
  8  9  4  0        0
  9 10  4  0        0
 10 11  4  0        0
  6 11  4  0        0
  9 12  1  0        0
  7 13  1  0        0
M  END
>  <CAS RN>
94746

>  <SMILES>
O=C(O)COc1c(cc(cc1)Cl)C

>  <Measured or Estimated Log10(mmol/L)>
-0.9821152

$$$$

CDXL12

 13 13  0  0  0  0  0  0  0  0999 V2000
    1.7862    1.2375    0.0000 O   0  0  0  0  0  0  0  2  0  0  0  0
    1.7862    0.4125    0.0000 C   0  0  0  0  0  0  0  2  0  0  0  0
    2.5006    0.0000    0.0000 O   0  0  0  0  0  0  0  2  0  0  0  0
    1.0717    0.0000    0.0000 C   0  0  0  0  0  0  0  2  0  0  0  0
    0.3572    0.4125    0.0000 O   0  0  0  0  0  0  0  2  0  0  0  0
   -0.3572    0.0000    0.0000 C   0  0  0  0  0  0  0  2  0  0  0  0
   -0.3572   -0.8250    0.0000 C   0  0  0  0  0  0  0  2  0  0  0  0
   -1.0717   -1.2375    0.0000 C   0  0  0  0  0  0  0  2  0  0  0  0
   -1.7862   -0.8250    0.0000 C   0  0  0  0  0  0  0  2  0  0  0  0
   -1.7862   -0.0000    0.0000 C   0  0  0  0  0  0  0  2  0  0  0  0
   -1.0717    0.4125    0.0000 C   0  0  0  0  0  0  0  2  0  0  0  0
   -2.5006   -1.2375    0.0000 Cl  0  0  0  0  0  0  0  2  0  0  0  0
    0.3572   -1.2375    0.0000 Cl  0  0  0  0  0  0  0  2  0  0  0  0
  1  2  2  0        0
  2  3  1  0        0
  2  4  1  0        0
  4  5  1  0        0
  5  6  1  0        0
  6  7  4  0        0
  7  8  4  0        0
  8  9  4  0        0
  9 10  4  0        0
 10 11  4  0        0
  6 11  4  0        0
  9 12  1  0        0
  7 13  1  0        0
M  END
>  <CAS RN>
94757

>  <SMILES>
O=C(O)COc1c(cc(cc1)Cl)Cl

>  <Measured or Estimated Log10(mmol/L)>
-0.783367523

$$$$

CDXL12

 17 17  0  0  0  0  0  0  0  0999 V2000
    3.9296   -0.0000    0.0000 C   0  0  0  0  0  0  0  2  0  0  0  0
    3.2151   -0.4125    0.0000 C   0  0  0  0  0  0  0  2  0  0  0  0
    2.5006   -0.0000    0.0000 C   0  0  0  0  0  0  0  2  0  0  0  0
    1.7862   -0.4125    0.0000 C   0  0  0  0  0  0  0  2  0  0  0  0
    1.0717    0.0000    0.0000 O   0  0  0  0  0  0  0  2  0  0  0  0
    0.3572   -0.4125    0.0000 C   0  0  0  0  0  0  0  2  0  0  0  0
    0.3572   -1.2375    0.0000 O   0  0  0  0  0  0  0  2  0  0  0  0
   -0.3572   -0.0000    0.0000 C   0  0  0  0  0  0  0  2  0  0  0  0
   -1.0717   -0.4125    0.0000 O   0  0  0  0  0  0  0  2  0  0  0  0
   -1.7862   -0.0000    0.0000 C   0  0  0  0  0  0  0  2  0  0  0  0
   -2.5006   -0.4125    0.0000 C   0  0  0  0  0  0  0  2  0  0  0  0
   -3.2151    0.0000    0.0000 C   0  0  0  0  0  0  0  2  0  0  0  0
   -3.2151    0.8250    0.0000 C   0  0  0  0  0  0  0  2  0  0  0  0
   -3.9296    1.2375    0.0000 Cl  0  0  0  0  0  0  0  2  0  0  0  0
   -2.5006    1.2375    0.0000 C   0  0  0  0  0  0  0  2  0  0  0  0
   -1.7862    0.8250    0.0000 C   0  0  0  0  0  0  0  2  0  0  0  0
   -1.0717    1.2375    0.0000 Cl  0  0  0  0  0  0  0  2  0  0  0  0
  1  2  1  0        0
  2  3  1  0        0
  3  4  1  0        0
  4  5  1  0        0
  5  6  1  0        0
  6  7  2  0        0
  6  8  1  0        0
  8  9  1  0        0
  9 10  1  0        0
 10 11  4  0        0
 11 12  4  0        0
 12 13  4  0        0
 13 14  1  0        0
 13 15  4  0        0
 15 16  4  0        0
 10 16  4  0        0
 16 17  1  0        0
M  END
>  <CAS RN>
94804

>  <SMILES>
CCCCOC(=O)COc1ccc(Cl)cc1Cl

>  <Measured or Estimated Log10(mmol/L)>
-0.49630297

$$$$

CDXL12

 10 10  0  0  0  0  0  0  0  0999 V2000
   -1.0717    0.4125    0.0000 C   0  0  0  0  0  0  0  2  0  0  0  0
   -1.0717   -0.4125    0.0000 C   0  0  0  0  0  0  0  2  0  0  0  0
   -0.3572   -0.8250    0.0000 C   0  0  0  0  0  0  0  2  0  0  0  0
    0.3572   -0.4125    0.0000 C   0  0  0  0  0  0  0  2  0  0  0  0
    0.3572    0.4125    0.0000 C   0  0  0  0  0  0  0  2  0  0  0  0
    1.0717    0.8250    0.0000 Cl  0  0  0  0  0  0  0  2  0  0  0  0
   -0.3572    0.8250    0.0000 C   0  0  0  0  0  0  0  2  0  0  0  0
    1.0717   -0.8250    0.0000 C   0  0  0  0  0  0  0  2  0  0  0  0
    1.7862   -0.4125    0.0000 Cl  0  0  0  0  0  0  0  2  0  0  0  0
   -1.7862    0.8250    0.0000 Cl  0  0  0  0  0  0  0  2  0  0  0  0
  1  2  4  0        0
  2  3  4  0        0
  3  4  4  0        0
  4  5  4  0        0
  5  6  1  0        0
  5  7  4  0        0
  1  7  4  0        0
  4  8  1  0        0
  8  9  1  0        0
  1 10  1  0        0
M  END
>  <CAS RN>
94995

>  <SMILES>
c1(ccc(c(Cl)c1)CCl)Cl

>  <Measured or Estimated Log10(mmol/L)>
-3.211912186

$$$$

CDXL12

  9 10  0  0  0  0  0  0  0  0999 V2000
    0.0797   -0.4125    0.0000 C   0  0  0  0  0  0  0  2  0  0  0  0
    0.8643   -0.6674    0.0000 C   0  0  0  0  0  0  0  2  0  0  0  0
    1.3492   -0.0000    0.0000 C   0  0  0  0  0  0  0  2  0  0  0  0
    0.8643    0.6674    0.0000 S   0  0  0  0  0  0  0  2  0  0  0  0
    0.0797    0.4125    0.0000 C   0  0  0  0  0  0  0  2  0  0  0  0
   -0.6348    0.8250    0.0000 C   0  0  0  0  0  0  0  2  0  0  0  0
   -1.3492    0.4125    0.0000 C   0  0  0  0  0  0  0  2  0  0  0  0
   -1.3492   -0.4125    0.0000 C   0  0  0  0  0  0  0  2  0  0  0  0
   -0.6348   -0.8250    0.0000 C   0  0  0  0  0  0  0  2  0  0  0  0
  1  2  4  0        0
  2  3  4  0        0
  3  4  4  0        0
  4  5  4  0        0
  1  5  4  0        0
  5  6  4  0        0
  6  7  4  0        0
  7  8  4  0        0
  8  9  4  0        0
  1  9  4  0        0
M  END
>  <CAS RN>
95158

>  <SMILES>
c12ccsc1cccc2

>  <Measured or Estimated Log10(mmol/L)>
-0.356900504

$$$$

CDXL12

  8  8  0  0  0  0  0  0  0  0999 V2000
    0.3572    0.4125    0.0000 C   0  0  0  0  0  0  0  2  0  0  0  0
    0.3572   -0.4125    0.0000 C   0  0  0  0  0  0  0  2  0  0  0  0
   -0.3572   -0.8250    0.0000 C   0  0  0  0  0  0  0  2  0  0  0  0
   -1.0717   -0.4125    0.0000 C   0  0  0  0  0  0  0  2  0  0  0  0
   -1.0717    0.4125    0.0000 C   0  0  0  0  0  0  0  2  0  0  0  0
   -0.3572    0.8250    0.0000 C   0  0  0  0  0  0  0  2  0  0  0  0
    1.0717   -0.8250    0.0000 C   0  0  0  0  0  0  0  2  0  0  0  0
    1.0717    0.8250    0.0000 C   0  0  0  0  0  0  0  2  0  0  0  0
  1  2  4  0        0
  2  3  4  0        0
  3  4  4  0        0
  4  5  4  0        0
  5  6  4  0        0
  1  6  4  0        0
  2  7  1  0        0
  1  8  1  0        0
M  END
>  <CAS RN>
95476

>  <SMILES>
c1(c(cccc1)C)C

>  <Measured or Estimated Log10(mmol/L)>
-0.782955587

$$$$

CDXL12

  8  8  0  0  0  0  0  0  0  0999 V2000
    1.0717    0.8250    0.0000 O   0  0  0  0  0  0  0  2  0  0  0  0
    0.3572    0.4125    0.0000 C   0  0  0  0  0  0  0  2  0  0  0  0
    0.3572   -0.4125    0.0000 C   0  0  0  0  0  0  0  2  0  0  0  0
   -0.3572   -0.8250    0.0000 C   0  0  0  0  0  0  0  2  0  0  0  0
   -1.0717   -0.4125    0.0000 C   0  0  0  0  0  0  0  2  0  0  0  0
   -1.0717    0.4125    0.0000 C   0  0  0  0  0  0  0  2  0  0  0  0
   -0.3572    0.8250    0.0000 C   0  0  0  0  0  0  0  2  0  0  0  0
    1.0717   -0.8250    0.0000 C   0  0  0  0  0  0  0  2  0  0  0  0
  1  2  1  0        0
  2  3  4  0        0
  3  4  4  0        0
  4  5  4  0        0
  5  6  4  0        0
  6  7  4  0        0
  2  7  4  0        0
  3  8  1  0        0
M  END
>  <CAS RN>
95487

>  <SMILES>
Oc1c(cccc1)C

>  <Measured or Estimated Log10(mmol/L)>
-0.855009418

$$$$

CDXL12

  8  8  0  0  0  0  0  0  0  0999 V2000
    0.3572    0.4125    0.0000 C   0  0  0  0  0  0  0  2  0  0  0  0
    0.3572   -0.4125    0.0000 C   0  0  0  0  0  0  0  2  0  0  0  0
   -0.3572   -0.8250    0.0000 C   0  0  0  0  0  0  0  2  0  0  0  0
   -1.0717   -0.4125    0.0000 C   0  0  0  0  0  0  0  2  0  0  0  0
   -1.0717    0.4125    0.0000 C   0  0  0  0  0  0  0  2  0  0  0  0
   -0.3572    0.8250    0.0000 C   0  0  0  0  0  0  0  2  0  0  0  0
    1.0717   -0.8250    0.0000 Cl  0  0  0  0  0  0  0  2  0  0  0  0
    1.0717    0.8250    0.0000 Cl  0  0  0  0  0  0  0  2  0  0  0  0
  1  2  4  0        0
  2  3  4  0        0
  3  4  4  0        0
  4  5  4  0        0
  5  6  4  0        0
  1  6  4  0        0
  2  7  1  0        0
  1  8  1  0        0
M  END
>  <CAS RN>
95501

>  <SMILES>
c1(c(cccc1)Cl)Cl

>  <Measured or Estimated Log10(mmol/L)>
-1.824906471

$$$$

CDXL12

  8  8  0  0  0  0  0  0  0  0999 V2000
    1.0717    0.8250    0.0000 N   0  0  0  0  0  0  0  2  0  0  0  0
    0.3572    0.4125    0.0000 C   0  0  0  0  0  0  0  2  0  0  0  0
    0.3572   -0.4125    0.0000 C   0  0  0  0  0  0  0  2  0  0  0  0
   -0.3572   -0.8250    0.0000 C   0  0  0  0  0  0  0  2  0  0  0  0
   -1.0717   -0.4125    0.0000 C   0  0  0  0  0  0  0  2  0  0  0  0
   -1.0717    0.4125    0.0000 C   0  0  0  0  0  0  0  2  0  0  0  0
   -0.3572    0.8250    0.0000 C   0  0  0  0  0  0  0  2  0  0  0  0
    1.0717   -0.8250    0.0000 Cl  0  0  0  0  0  0  0  2  0  0  0  0
  1  2  1  0        0
  2  3  4  0        0
  3  4  4  0        0
  4  5  4  0        0
  5  6  4  0        0
  6  7  4  0        0
  2  7  4  0        0
  3  8  1  0        0
M  END
>  <CAS RN>
95512

>  <SMILES>
Nc1c(cccc1)Cl

>  <Measured or Estimated Log10(mmol/L)>
-1.831342915

$$$$

CDXL12

  8  8  0  0  0  0  0  0  0  0999 V2000
    1.0717    0.8250    0.0000 N   0  0  0  0  0  0  0  2  0  0  0  0
    0.3572    0.4125    0.0000 C   0  0  0  0  0  0  0  2  0  0  0  0
    0.3572   -0.4125    0.0000 C   0  0  0  0  0  0  0  2  0  0  0  0
   -0.3572   -0.8250    0.0000 C   0  0  0  0  0  0  0  2  0  0  0  0
   -1.0717   -0.4125    0.0000 C   0  0  0  0  0  0  0  2  0  0  0  0
   -1.0717    0.4125    0.0000 C   0  0  0  0  0  0  0  2  0  0  0  0
   -0.3572    0.8250    0.0000 C   0  0  0  0  0  0  0  2  0  0  0  0
    1.0717   -0.8250    0.0000 C   0  0  0  0  0  0  0  2  0  0  0  0
  1  2  1  0        0
  2  3  4  0        0
  3  4  4  0        0
  4  5  4  0        0
  5  6  4  0        0
  6  7  4  0        0
  2  7  4  0        0
  3  8  1  0        0
M  END
>  <CAS RN>
95534

>  <SMILES>
Nc1c(cccc1)C

>  <Measured or Estimated Log10(mmol/L)>
-0.932375354

$$$$

CDXL12

  8  8  0  0  0  0  0  0  0  0999 V2000
    1.0717    0.8250    0.0000 O   0  0  0  0  0  0  0  2  0  0  0  0
    0.3572    0.4125    0.0000 C   0  0  0  0  0  0  0  2  0  0  0  0
    0.3572   -0.4125    0.0000 C   0  0  0  0  0  0  0  2  0  0  0  0
   -0.3572   -0.8250    0.0000 C   0  0  0  0  0  0  0  2  0  0  0  0
   -1.0717   -0.4125    0.0000 C   0  0  0  0  0  0  0  2  0  0  0  0
   -1.0717    0.4125    0.0000 C   0  0  0  0  0  0  0  2  0  0  0  0
   -0.3572    0.8250    0.0000 C   0  0  0  0  0  0  0  2  0  0  0  0
    1.0717   -0.8250    0.0000 Br  0  0  0  0  0  0  0  2  0  0  0  0
  1  2  1  0        0
  2  3  4  0        0
  3  4  4  0        0
  4  5  4  0        0
  5  6  4  0        0
  6  7  4  0        0
  2  7  4  0        0
  3  8  1  0        0
M  END
>  <CAS RN>
95567

>  <SMILES>
Oc1c(cccc1)Br

>  <Measured or Estimated Log10(mmol/L)>
-2.283838722

$$$$

CDXL12

  8  8  0  0  0  0  0  0  0  0999 V2000
    1.0717    0.8250    0.0000 O   0  0  0  0  0  0  0  2  0  0  0  0
    0.3572    0.4125    0.0000 C   0  0  0  0  0  0  0  2  0  0  0  0
    0.3572   -0.4125    0.0000 C   0  0  0  0  0  0  0  2  0  0  0  0
   -0.3572   -0.8250    0.0000 C   0  0  0  0  0  0  0  2  0  0  0  0
   -1.0717   -0.4125    0.0000 C   0  0  0  0  0  0  0  2  0  0  0  0
   -1.0717    0.4125    0.0000 C   0  0  0  0  0  0  0  2  0  0  0  0
   -0.3572    0.8250    0.0000 C   0  0  0  0  0  0  0  2  0  0  0  0
    1.0717   -0.8250    0.0000 Cl  0  0  0  0  0  0  0  2  0  0  0  0
  1  2  1  0        0
  2  3  4  0        0
  3  4  4  0        0
  4  5  4  0        0
  5  6  4  0        0
  6  7  4  0        0
  2  7  4  0        0
  3  8  1  0        0
M  END
>  <CAS RN>
95578

>  <SMILES>
Oc1c(cccc1)Cl

>  <Measured or Estimated Log10(mmol/L)>
-1.694125759

$$$$

CDXL12

  9  9  0  0  0  0  0  0  0  0999 V2000
   -0.7145   -0.4125    0.0000 C   0  0  0  0  0  0  0  2  0  0  0  0
   -0.7145    0.4125    0.0000 C   0  0  0  0  0  0  0  2  0  0  0  0
    0.0000    0.8250    0.0000 C   0  0  0  0  0  0  0  2  0  0  0  0
    0.7145    0.4125    0.0000 C   0  0  0  0  0  0  0  2  0  0  0  0
    0.7145   -0.4125    0.0000 C   0  0  0  0  0  0  0  2  0  0  0  0
    1.4289   -0.8250    0.0000 C   0  0  0  0  0  0  0  2  0  0  0  0
    0.0000   -0.8250    0.0000 C   0  0  0  0  0  0  0  2  0  0  0  0
    1.4289    0.8250    0.0000 C   0  0  0  0  0  0  0  2  0  0  0  0
   -1.4289   -0.8250    0.0000 C   0  0  0  0  0  0  0  2  0  0  0  0
  1  2  4  0        0
  2  3  4  0        0
  3  4  4  0        0
  4  5  4  0        0
  5  6  1  0        0
  5  7  4  0        0
  1  7  4  0        0
  4  8  1  0        0
  1  9  1  0        0
M  END
>  <CAS RN>
95636

>  <SMILES>
c1(ccc(c(C)c1)C)C

>  <Measured or Estimated Log10(mmol/L)>
-1.52

$$$$

CDXL12

  9  9  0  0  0  0  0  0  0  0999 V2000
   -1.4289   -0.8250    0.0000 O   0  0  0  0  0  0  0  2  0  0  0  0
   -0.7145   -0.4125    0.0000 C   0  0  0  0  0  0  0  2  0  0  0  0
   -0.7145    0.4125    0.0000 C   0  0  0  0  0  0  0  2  0  0  0  0
    0.0000    0.8250    0.0000 C   0  0  0  0  0  0  0  2  0  0  0  0
    0.7145    0.4125    0.0000 C   0  0  0  0  0  0  0  2  0  0  0  0
    0.7145   -0.4125    0.0000 C   0  0  0  0  0  0  0  2  0  0  0  0
    1.4289   -0.8250    0.0000 C   0  0  0  0  0  0  0  2  0  0  0  0
    0.0000   -0.8250    0.0000 C   0  0  0  0  0  0  0  2  0  0  0  0
    1.4289    0.8250    0.0000 C   0  0  0  0  0  0  0  2  0  0  0  0
  1  2  1  0        0
  2  3  4  0        0
  3  4  4  0        0
  4  5  4  0        0
  5  6  4  0        0
  6  7  1  0        0
  6  8  4  0        0
  2  8  4  0        0
  5  9  1  0        0
M  END
>  <CAS RN>
95658

>  <SMILES>
Oc1ccc(c(C)c1)C

>  <Measured or Estimated Log10(mmol/L)>
-0.82

$$$$

CDXL12

  9  9  0  0  0  0  0  0  0  0999 V2000
    1.4289    0.8250    0.0000 N   0  0  0  0  0  0  0  2  0  0  0  0
    0.7145    0.4125    0.0000 C   0  0  0  0  0  0  0  2  0  0  0  0
    0.7145   -0.4125    0.0000 C   0  0  0  0  0  0  0  2  0  0  0  0
    0.0000   -0.8250    0.0000 C   0  0  0  0  0  0  0  2  0  0  0  0
   -0.7145   -0.4125    0.0000 C   0  0  0  0  0  0  0  2  0  0  0  0
   -0.7145    0.4125    0.0000 C   0  0  0  0  0  0  0  2  0  0  0  0
    0.0000    0.8250    0.0000 C   0  0  0  0  0  0  0  2  0  0  0  0
   -1.4289   -0.8250    0.0000 C   0  0  0  0  0  0  0  2  0  0  0  0
    1.4289   -0.8250    0.0000 C   0  0  0  0  0  0  0  2  0  0  0  0
  1  2  1  0        0
  2  3  4  0        0
  3  4  4  0        0
  4  5  4  0        0
  5  6  4  0        0
  6  7  4  0        0
  2  7  4  0        0
  5  8  1  0        0
  3  9  1  0        0
M  END
>  <CAS RN>
95681

>  <SMILES>
Nc1c(cc(cc1)C)C

>  <Measured or Estimated Log10(mmol/L)>
-1.0100539

$$$$

CDXL12

  9  9  0  0  0  0  0  0  0  0999 V2000
   -1.4289   -0.8250    0.0000 N   0  0  0  0  0  0  0  2  0  0  0  0
   -0.7145   -0.4125    0.0000 C   0  0  0  0  0  0  0  2  0  0  0  0
   -0.7145    0.4125    0.0000 C   0  0  0  0  0  0  0  2  0  0  0  0
    0.0000    0.8250    0.0000 C   0  0  0  0  0  0  0  2  0  0  0  0
    0.7145    0.4125    0.0000 C   0  0  0  0  0  0  0  2  0  0  0  0
    0.7145   -0.4125    0.0000 C   0  0  0  0  0  0  0  2  0  0  0  0
    1.4289   -0.8250    0.0000 Cl  0  0  0  0  0  0  0  2  0  0  0  0
    0.0000   -0.8250    0.0000 C   0  0  0  0  0  0  0  2  0  0  0  0
    1.4289    0.8250    0.0000 Cl  0  0  0  0  0  0  0  2  0  0  0  0
  1  2  1  0        0
  2  3  4  0        0
  3  4  4  0        0
  4  5  4  0        0
  5  6  4  0        0
  6  7  1  0        0
  6  8  4  0        0
  2  8  4  0        0
  5  9  1  0        0
M  END
>  <CAS RN>
95761

>  <SMILES>
Nc1ccc(c(Cl)c1)Cl

>  <Measured or Estimated Log10(mmol/L)>
-2.896755682

$$$$

CDXL12

  9  9  0  0  0  0  0  0  0  0999 V2000
   -1.4289   -0.8250    0.0000 O   0  0  0  0  0  0  0  2  0  0  0  0
   -0.7145   -0.4125    0.0000 C   0  0  0  0  0  0  0  2  0  0  0  0
   -0.7145    0.4125    0.0000 C   0  0  0  0  0  0  0  2  0  0  0  0
    0.0000    0.8250    0.0000 C   0  0  0  0  0  0  0  2  0  0  0  0
    0.7145    0.4125    0.0000 C   0  0  0  0  0  0  0  2  0  0  0  0
    1.4289    0.8250    0.0000 Cl  0  0  0  0  0  0  0  2  0  0  0  0
    0.7145   -0.4125    0.0000 C   0  0  0  0  0  0  0  2  0  0  0  0
    1.4289   -0.8250    0.0000 Cl  0  0  0  0  0  0  0  2  0  0  0  0
    0.0000   -0.8250    0.0000 C   0  0  0  0  0  0  0  2  0  0  0  0
  1  2  1  0        0
  2  3  4  0        0
  3  4  4  0        0
  4  5  4  0        0
  5  6  1  0        0
  5  7  4  0        0
  7  8  1  0        0
  7  9  4  0        0
  2  9  4  0        0
M  END
>  <CAS RN>
95772

>  <SMILES>
Oc1ccc(Cl)c(Cl)c1

>  <Measured or Estimated Log10(mmol/L)>
-1.765037555

$$$$

CDXL12

  9  9  0  0  0  0  0  0  0  0999 V2000
    1.4289    0.8250    0.0000 O   0  0  0  0  0  0  0  2  0  0  0  0
    0.7145    0.4125    0.0000 C   0  0  0  0  0  0  0  2  0  0  0  0
    0.7145   -0.4125    0.0000 C   0  0  0  0  0  0  0  2  0  0  0  0
    1.4289   -0.8250    0.0000 N   0  0  0  0  0  0  0  2  0  0  0  0
    0.0000   -0.8250    0.0000 C   0  0  0  0  0  0  0  2  0  0  0  0
   -0.7145   -0.4125    0.0000 C   0  0  0  0  0  0  0  2  0  0  0  0
   -0.7145    0.4125    0.0000 C   0  0  0  0  0  0  0  2  0  0  0  0
    0.0000    0.8250    0.0000 C   0  0  0  0  0  0  0  2  0  0  0  0
   -1.4289   -0.8250    0.0000 C   0  0  0  0  0  0  0  2  0  0  0  0
  1  2  1  0        0
  2  3  4  0        0
  3  4  1  0        0
  3  5  4  0        0
  5  6  4  0        0
  6  7  4  0        0
  7  8  4  0        0
  2  8  4  0        0
  6  9  1  0        0
M  END
>  <CAS RN>
95841

>  <SMILES>
Oc1c(N)cc(cc1)C

>  <Measured or Estimated Log10(mmol/L)>
-1.613330783

$$$$

CDXL12

  9  9  0  0  0  0  0  0  0  0999 V2000
    1.4289   -0.8250    0.0000 O   0  0  0  0  0  0  0  2  0  0  0  0
    0.7145   -0.4125    0.0000 C   0  0  0  0  0  0  0  2  0  0  0  0
    0.7145    0.4125    0.0000 C   0  0  0  0  0  0  0  2  0  0  0  0
    0.0000    0.8250    0.0000 C   0  0  0  0  0  0  0  2  0  0  0  0
   -0.7145    0.4125    0.0000 C   0  0  0  0  0  0  0  2  0  0  0  0
   -0.7145   -0.4125    0.0000 C   0  0  0  0  0  0  0  2  0  0  0  0
   -1.4289   -0.8250    0.0000 C   0  0  0  0  0  0  0  2  0  0  0  0
    0.0000   -0.8250    0.0000 C   0  0  0  0  0  0  0  2  0  0  0  0
    1.4289    0.8250    0.0000 C   0  0  0  0  0  0  0  2  0  0  0  0
  1  2  1  0        0
  2  3  4  0        0
  3  4  4  0        0
  4  5  4  0        0
  5  6  4  0        0
  6  7  1  0        0
  6  8  4  0        0
  2  8  4  0        0
  3  9  1  0        0
M  END
>  <CAS RN>
95874

>  <SMILES>
Oc1c(ccc(C)c1)C

>  <Measured or Estimated Log10(mmol/L)>
-1.03

$$$$

CDXL12

 10  9  0  0  0  0  0  0  0  0999 V2000
    0.3572   -1.0313    0.0000 O   0  0  0  0  0  0  0  2  0  0  0  0
    0.3572   -0.2062    0.0000 C   0  0  0  0  0  0  0  2  0  0  0  0
    1.0717    0.2062    0.0000 O   0  0  0  0  0  0  0  2  0  0  0  0
    1.7862   -0.2062    0.0000 C   0  0  0  0  0  0  0  2  0  0  0  0
    2.5006    0.2062    0.0000 C   0  0  0  0  0  0  0  2  0  0  0  0
   -0.3572    0.2062    0.0000 C   0  0  0  0  0  0  0  2  0  0  0  0
   -0.3572    1.0313    0.0000 O   0  0  0  0  0  0  0  2  0  0  0  0
   -1.0717   -0.2062    0.0000 O   0  0  0  0  0  0  0  2  0  0  0  0
   -1.7862    0.2062    0.0000 C   0  0  0  0  0  0  0  2  0  0  0  0
   -2.5006   -0.2062    0.0000 C   0  0  0  0  0  0  0  2  0  0  0  0
  1  2  2  0        0
  2  3  1  0        0
  3  4  1  0        0
  4  5  1  0        0
  2  6  1  0        0
  6  7  2  0        0
  6  8  1  0        0
  8  9  1  0        0
  9 10  1  0        0
M  END
>  <CAS RN>
95921

>  <SMILES>
O=C(OCC)C(=O)OCC

>  <Measured or Estimated Log10(mmol/L)>
0.3371491

$$$$

CDXL12

 10 10  0  0  0  0  0  0  0  0999 V2000
    0.7145    0.4125    0.0000 C   0  0  0  0  0  0  0  2  0  0  0  0
    0.7145   -0.4125    0.0000 C   0  0  0  0  0  0  0  2  0  0  0  0
    0.0000   -0.8250    0.0000 C   0  0  0  0  0  0  0  2  0  0  0  0
   -0.7145   -0.4125    0.0000 C   0  0  0  0  0  0  0  2  0  0  0  0
   -0.7145    0.4125    0.0000 C   0  0  0  0  0  0  0  2  0  0  0  0
   -1.4289    0.8250    0.0000 C   0  0  0  0  0  0  0  2  0  0  0  0
    0.0000    0.8250    0.0000 C   0  0  0  0  0  0  0  2  0  0  0  0
   -1.4289   -0.8250    0.0000 C   0  0  0  0  0  0  0  2  0  0  0  0
    1.4289   -0.8250    0.0000 C   0  0  0  0  0  0  0  2  0  0  0  0
    1.4289    0.8250    0.0000 C   0  0  0  0  0  0  0  2  0  0  0  0
  1  2  4  0        0
  2  3  4  0        0
  3  4  4  0        0
  4  5  4  0        0
  5  6  1  0        0
  5  7  4  0        0
  1  7  4  0        0
  4  8  1  0        0
  2  9  1  0        0
  1 10  1  0        0
M  END
>  <CAS RN>
95932

>  <SMILES>
c1(c(cc(c(C)c1)C)C)C

>  <Measured or Estimated Log10(mmol/L)>
-2.46

$$$$

CDXL12

 10 10  0  0  0  0  0  0  0  0999 V2000
    0.7145    0.4125    0.0000 C   0  0  0  0  0  0  0  2  0  0  0  0
    0.7145   -0.4125    0.0000 C   0  0  0  0  0  0  0  2  0  0  0  0
    0.0000   -0.8250    0.0000 C   0  0  0  0  0  0  0  2  0  0  0  0
   -0.7145   -0.4125    0.0000 C   0  0  0  0  0  0  0  2  0  0  0  0
   -0.7145    0.4125    0.0000 C   0  0  0  0  0  0  0  2  0  0  0  0
   -1.4289    0.8250    0.0000 Cl  0  0  0  0  0  0  0  2  0  0  0  0
    0.0000    0.8250    0.0000 C   0  0  0  0  0  0  0  2  0  0  0  0
   -1.4289   -0.8250    0.0000 Cl  0  0  0  0  0  0  0  2  0  0  0  0
    1.4289   -0.8250    0.0000 Cl  0  0  0  0  0  0  0  2  0  0  0  0
    1.4289    0.8250    0.0000 Cl  0  0  0  0  0  0  0  2  0  0  0  0
  1  2  4  0        0
  2  3  4  0        0
  3  4  4  0        0
  4  5  4  0        0
  5  6  1  0        0
  5  7  4  0        0
  1  7  4  0        0
  4  8  1  0        0
  2  9  1  0        0
  1 10  1  0        0
M  END
>  <CAS RN>
95943

>  <SMILES>
c1(c(cc(c(Cl)c1)Cl)Cl)Cl

>  <Measured or Estimated Log10(mmol/L)>
0.39

$$$$

CDXL12

 10 10  0  0  0  0  0  0  0  0999 V2000
    1.4289    0.8250    0.0000 O   0  0  0  0  0  0  0  2  0  0  0  0
    0.7145    0.4125    0.0000 C   0  0  0  0  0  0  0  2  0  0  0  0
    0.7145   -0.4125    0.0000 C   0  0  0  0  0  0  0  2  0  0  0  0
    0.0000   -0.8250    0.0000 C   0  0  0  0  0  0  0  2  0  0  0  0
   -0.7145   -0.4125    0.0000 C   0  0  0  0  0  0  0  2  0  0  0  0
   -0.7145    0.4125    0.0000 C   0  0  0  0  0  0  0  2  0  0  0  0
   -1.4289    0.8250    0.0000 Cl  0  0  0  0  0  0  0  2  0  0  0  0
    0.0000    0.8250    0.0000 C   0  0  0  0  0  0  0  2  0  0  0  0
   -1.4289   -0.8250    0.0000 Cl  0  0  0  0  0  0  0  2  0  0  0  0
    1.4289   -0.8250    0.0000 Cl  0  0  0  0  0  0  0  2  0  0  0  0
  1  2  1  0        0
  2  3  4  0        0
  3  4  4  0        0
  4  5  4  0        0
  5  6  4  0        0
  6  7  1  0        0
  6  8  4  0        0
  2  8  4  0        0
  5  9  1  0        0
  3 10  1  0        0
M  END
>  <CAS RN>
95954

>  <SMILES>
Oc1c(cc(c(Cl)c1)Cl)Cl

>  <Measured or Estimated Log10(mmol/L)>
-1.864088975

$$$$

CDXL12

  6  5  0  0  0  0  0  0  0  0999 V2000
    0.0000    0.6188    0.0000 O   0  0  0  0  0  0  0  2  0  0  0  0
    0.0000   -0.2062    0.0000 C   0  0  0  0  0  0  0  2  0  0  0  0
    0.7145   -0.6188    0.0000 C   0  0  0  0  0  0  0  2  0  0  0  0
    1.4289   -0.2062    0.0000 Cl  0  0  0  0  0  0  0  2  0  0  0  0
   -0.7145   -0.6187    0.0000 C   0  0  0  0  0  0  0  2  0  0  0  0
   -1.4289   -0.2062    0.0000 Cl  0  0  0  0  0  0  0  2  0  0  0  0
  1  2  1  0        0
  2  3  1  0        0
  3  4  1  0        0
  2  5  1  0        0
  5  6  1  0        0
M  END
>  <CAS RN>
96231

>  <SMILES>
OC(CCl)CCl

>  <Measured or Estimated Log10(mmol/L)>
0.619036771

$$$$

CDXL12

  6  5  0  0  0  0  0  0  0  0999 V2000
    0.0000    0.6188    0.0000 O   0  0  0  0  0  0  0  2  0  0  0  0
    0.0000   -0.2062    0.0000 C   0  0  0  0  0  0  0  2  0  0  0  0
    0.7145   -0.6188    0.0000 O   0  0  0  0  0  0  0  2  0  0  0  0
    1.4289   -0.2062    0.0000 C   0  0  0  0  0  0  0  2  0  0  0  0
   -0.7145   -0.6187    0.0000 C   0  0  0  0  0  0  0  2  0  0  0  0
   -1.4289   -0.2062    0.0000 C   0  0  0  0  0  0  0  2  0  0  0  0
  1  2  2  0        0
  2  3  1  0        0
  3  4  1  0        0
  2  5  1  0        0
  5  6  2  0        0
M  END
>  <CAS RN>
96333

>  <SMILES>
O=C(OC)C=C

>  <Measured or Estimated Log10(mmol/L)>
-1.51997935

$$$$

CDXL12

  6  6  0  0  0  0  0  0  0  0999 V2000
    1.0597    0.4048    0.0000 O   0  0  0  0  0  0  0  2  0  0  0  0
    0.2751    0.1498    0.0000 C   0  0  0  0  0  0  0  2  0  0  0  0
    0.0202   -0.6348    0.0000 C   0  0  0  0  0  0  0  2  0  0  0  0
   -0.8048   -0.6348    0.0000 C   0  0  0  0  0  0  0  2  0  0  0  0
   -1.0597    0.1498    0.0000 C   0  0  0  0  0  0  0  2  0  0  0  0
   -0.3923    0.6348    0.0000 C   0  0  0  0  0  0  0  2  0  0  0  0
  1  2  1  0        0
  2  3  1  0        0
  3  4  1  0        0
  4  5  1  0        0
  5  6  1  0        0
  2  6  1  0        0
M  END
>  <CAS RN>
96413

>  <SMILES>
OC1CCCC1

>  <Measured or Estimated Log10(mmol/L)>
0.8553041

$$$$

CDXL12

  6  6  0  0  0  0  0  0  0  0999 V2000
   -0.3923    0.6348    0.0000 N   0  0  0  0  0  0  0  2  0  0  0  0
    0.2751    0.1498    0.0000 C   0  0  0  0  0  0  0  2  0  0  0  0
    1.0597    0.4048    0.0000 S   0  0  0  0  0  0  0  2  0  0  0  0
    0.0202   -0.6348    0.0000 N   0  0  0  0  0  0  0  2  0  0  0  0
   -0.8048   -0.6348    0.0000 C   0  0  0  0  0  0  0  2  0  0  0  0
   -1.0597    0.1498    0.0000 C   0  0  0  0  0  0  0  2  0  0  0  0
  1  2  1  0        0
  2  3  2  0        0
  2  4  1  0        0
  4  5  1  0        0
  5  6  1  0        0
  1  6  1  0        0
M  END
>  <CAS RN>
96457

>  <SMILES>
N1C(=S)NCC1

>  <Measured or Estimated Log10(mmol/L)>
-0.587672706

$$$$

CDXL12

 13 13  0  0  0  0  0  0  0  0999 V2000
   -1.4289    1.2375    0.0000 O   0  0  0  0  0  0  0  2  0  0  0  0
   -1.4289    0.4125    0.0000 N   0  0  0  0  0  0  0  2  0  0  0  0
   -2.1434    0.0000    0.0000 O   0  0  0  0  0  0  0  2  0  0  0  0
   -0.7145    0.0000    0.0000 C   0  0  0  0  0  0  0  2  0  0  0  0
    0.0000    0.4125    0.0000 C   0  0  0  0  0  0  0  2  0  0  0  0
    0.7145   -0.0000    0.0000 C   0  0  0  0  0  0  0  2  0  0  0  0
    0.7145   -0.8250    0.0000 C   0  0  0  0  0  0  0  2  0  0  0  0
    0.0000   -1.2375    0.0000 C   0  0  0  0  0  0  0  2  0  0  0  0
   -0.7145   -0.8250    0.0000 C   0  0  0  0  0  0  0  2  0  0  0  0
   -1.4289   -1.2375    0.0000 Cl  0  0  0  0  0  0  0  2  0  0  0  0
    1.4289    0.4125    0.0000 N   0  0  0  0  0  0  0  2  0  0  0  0
    1.4289    1.2375    0.0000 O   0  0  0  0  0  0  0  2  0  0  0  0
    2.1434   -0.0000    0.0000 O   0  0  0  0  0  0  0  2  0  0  0  0
  1  2  2  0        0
  2  3  2  0        0
  2  4  1  0        0
  4  5  4  0        0
  5  6  4  0        0
  6  7  4  0        0
  7  8  4  0        0
  8  9  4  0        0
  4  9  4  0        0
  9 10  1  0        0
  6 11  1  0        0
 11 12  2  0        0
 11 13  2  0        0
M  END
>  <CAS RN>
97007

>  <SMILES>
O=N(=O)c1cc(ccc1Cl)N(=O)=O

>  <Measured or Estimated Log10(mmol/L)>
-2.403448693

$$$$

CDXL12

 24 26  0  0  0  0  0  0  0  0999 V2000
    1.7652   -1.0946    0.0000 C   0  0  0  0  0  0  0  2  0  0  0  0
    1.5936   -0.2877    0.0000 C   0  0  0  0  0  0  0  2  0  0  0  0
    2.1457    0.3254    0.0000 C   0  0  0  0  0  0  0  2  0  0  0  0
    1.7332    1.0399    0.0000 C   0  0  0  0  0  0  0  2  0  0  0  0
    2.0687    1.7936    0.0000 O   0  0  0  0  0  0  0  2  0  0  0  0
    0.9262    0.8684    0.0000 C   0  0  0  0  0  0  0  2  0  0  0  0
    0.8400    0.0479    0.0000 C   0  0  0  0  0  0  0  2  0  0  0  0
    0.1255   -0.3646    0.0000 O   0  0  0  0  0  0  0  2  0  0  0  0
   -0.5890    0.0479    0.0000 C   0  0  0  0  0  0  0  2  0  0  0  0
   -0.5890    0.8729    0.0000 O   0  0  0  0  0  0  0  2  0  0  0  0
   -1.3034   -0.3646    0.0000 C   0  0  0  0  0  0  0  2  0  0  0  0
   -2.1284   -0.3646    0.0000 C   0  0  0  0  0  0  0  2  0  0  0  0
   -1.7159   -1.0791    0.0000 C   0  0  0  0  0  0  0  2  0  0  0  0
   -2.1284   -1.7936    0.0000 C   0  0  0  0  0  0  0  2  0  0  0  0
   -1.3034   -1.7936    0.0000 C   0  0  0  0  0  0  0  2  0  0  0  0
   -2.8429    0.0479    0.0000 C   0  0  0  0  0  0  0  2  0  0  0  0
   -3.5574   -0.3646    0.0000 C   0  0  0  0  0  0  0  2  0  0  0  0
   -3.5574   -1.1896    0.0000 C   0  0  0  0  0  0  0  2  0  0  0  0
   -4.2719    0.0479    0.0000 C   0  0  0  0  0  0  0  2  0  0  0  0
    2.9662    0.2392    0.0000 C   0  0  0  0  0  0  0  2  0  0  0  0
    3.3787   -0.4753    0.0000 C   0  0  0  0  0  0  0  2  0  0  0  0
    4.1856   -0.3038    0.0000 C   0  0  0  0  0  0  0  2  0  0  0  0
    4.2719    0.5167    0.0000 C   0  0  0  0  0  0  0  2  0  0  0  0
    3.5182    0.8523    0.0000 C   0  0  0  0  0  0  0  2  0  0  0  0
  1  2  1  0        0
  2  3  2  0        0
  3  4  1  0        0
  4  5  2  0        0
  4  6  1  0        0
  6  7  1  0        0
  2  7  1  0        0
  7  8  1  0        0
  8  9  1  0        0
  9 10  2  0        0
  9 11  1  0        0
 11 12  1  0        0
 12 13  1  0        0
 11 13  1  0        0
 13 14  1  0        0
 13 15  1  0        0
 12 16  1  0        0
 16 17  2  0        0
 17 18  1  0        0
 17 19  1  0        0
  3 20  1  0        0
 20 21  1  0        0
 21 22  1  0        0
 22 23  1  0        0
 23 24  2  0        0
 20 24  1  0        0
M  END
>  <CAS RN>
97110

>  <SMILES>
C\C\1=C(\C(=O)CC1OC(=O)C1C(C1(C)C)C=C(C)C)/C\1CC\C=C1

>  <Measured or Estimated Log10(mmol/L)>
-4.208219747

$$$$

CDXL12

 17 17  0  0  0  0  0  0  0  0999 V2000
   -2.5006    0.4125    0.0000 C   0  0  0  0  0  0  0  2  0  0  0  0
   -1.7862    0.8250    0.0000 C   0  0  0  0  0  0  0  2  0  0  0  0
   -1.0717    0.4125    0.0000 O   0  0  0  0  0  0  0  2  0  0  0  0
   -0.3572    0.8250    0.0000 P   0  0  0  0  0  0  0  2  0  0  0  0
   -0.3572    1.6500    0.0000 S   0  0  0  0  0  0  0  2  0  0  0  0
    0.3572    0.4125    0.0000 O   0  0  0  0  0  0  0  2  0  0  0  0
    1.0717    0.8250    0.0000 C   0  0  0  0  0  0  0  2  0  0  0  0
    1.7862    0.4125    0.0000 C   0  0  0  0  0  0  0  2  0  0  0  0
   -0.3572    0.0000    0.0000 O   0  0  0  0  0  0  0  2  0  0  0  0
    0.3572   -0.4125    0.0000 C   0  0  0  0  0  0  0  2  0  0  0  0
    1.0717    0.0000    0.0000 C   0  0  0  0  0  0  0  2  0  0  0  0
    1.7862   -0.4125    0.0000 C   0  0  0  0  0  0  0  2  0  0  0  0
    1.7862   -1.2375    0.0000 C   0  0  0  0  0  0  0  2  0  0  0  0
    2.5006   -1.6500    0.0000 Cl  0  0  0  0  0  0  0  2  0  0  0  0
    1.0717   -1.6500    0.0000 C   0  0  0  0  0  0  0  2  0  0  0  0
    0.3572   -1.2375    0.0000 C   0  0  0  0  0  0  0  2  0  0  0  0
   -0.3572   -1.6500    0.0000 Cl  0  0  0  0  0  0  0  2  0  0  0  0
  1  2  1  0        0
  2  3  1  0        0
  3  4  1  0        0
  4  5  2  0        0
  4  6  1  0        0
  6  7  1  0        0
  7  8  1  0        0
  4  9  1  0        0
  9 10  1  0        0
 10 11  4  0        0
 11 12  4  0        0
 12 13  4  0        0
 13 14  1  0        0
 13 15  4  0        0
 15 16  4  0        0
 10 16  4  0        0
 16 17  1  0        0
M  END
>  <CAS RN>
97176

>  <SMILES>
CCOP(=S)(OCC)Oc1ccc(Cl)cc1Cl

>  <Measured or Estimated Log10(mmol/L)>
-5.9532526

$$$$

CDXL12

 12 12  0  0  0  0  0  0  0  0999 V2000
    1.4289   -0.8250    0.0000 O   0  0  0  0  0  0  0  2  0  0  0  0
    0.7145   -0.4125    0.0000 C   0  0  0  0  0  0  0  2  0  0  0  0
    0.7145    0.4125    0.0000 C   0  0  0  0  0  0  0  2  0  0  0  0
    0.0000    0.8250    0.0000 C   0  0  0  0  0  0  0  2  0  0  0  0
   -0.7145    0.4125    0.0000 C   0  0  0  0  0  0  0  2  0  0  0  0
   -1.4289    0.8250    0.0000 N   0  0  0  0  0  0  0  2  0  0  0  0
   -0.7145   -0.4125    0.0000 C   0  0  0  0  0  0  0  2  0  0  0  0
   -1.4289   -0.8250    0.0000 O   0  0  0  0  0  0  0  2  0  0  0  0
   -2.1434   -0.4125    0.0000 C   0  0  0  0  0  0  0  2  0  0  0  0
    0.0000   -0.8250    0.0000 C   0  0  0  0  0  0  0  2  0  0  0  0
    1.4289    0.8250    0.0000 Cl  0  0  0  0  0  0  0  2  0  0  0  0
    2.1434   -0.4125    0.0000 C   0  0  0  0  0  0  0  2  0  0  0  0
  1  2  1  0        0
  2  3  4  0        0
  3  4  4  0        0
  4  5  4  0        0
  5  6  1  0        0
  5  7  4  0        0
  7  8  1  0        0
  8  9  1  0        0
  7 10  4  0        0
  2 10  4  0        0
  3 11  1  0        0
  1 12  1  0        0
M  END
>  <CAS RN>
97507

>  <SMILES>
O(c1c(cc(N)c(OC)c1)Cl)C

>  <Measured or Estimated Log10(mmol/L)>
-2.063777996

$$$$

CDXL12

 11 10  0  0  0  0  0  0  0  0999 V2000
    0.7145    0.2062    0.0000 C   0  0  0  0  0  0  0  2  0  0  0  0
    0.7145    1.0312    0.0000 S   0  0  0  0  0  0  0  2  0  0  0  0
    0.0000   -0.2062    0.0000 S   0  0  0  0  0  0  0  2  0  0  0  0
   -0.7145    0.2062    0.0000 C   0  0  0  0  0  0  0  2  0  0  0  0
   -0.7145    1.0313    0.0000 S   0  0  0  0  0  0  0  2  0  0  0  0
   -1.4289   -0.2062    0.0000 N   0  0  0  0  0  0  0  2  0  0  0  0
   -1.4289   -1.0312    0.0000 C   0  0  0  0  0  0  0  2  0  0  0  0
   -2.1434    0.2062    0.0000 C   0  0  0  0  0  0  0  2  0  0  0  0
    1.4289   -0.2062    0.0000 N   0  0  0  0  0  0  0  2  0  0  0  0
    2.1434    0.2062    0.0000 C   0  0  0  0  0  0  0  2  0  0  0  0
    1.4289   -1.0313    0.0000 C   0  0  0  0  0  0  0  2  0  0  0  0
  1  2  2  0        0
  1  3  1  0        0
  3  4  1  0        0
  4  5  2  0        0
  4  6  1  0        0
  6  7  1  0        0
  6  8  1  0        0
  1  9  1  0        0
  9 10  1  0        0
  9 11  1  0        0
M  END
>  <CAS RN>
97745

>  <SMILES>
C(=S)(SC(=S)N(C)C)N(C)C

>  <Measured or Estimated Log10(mmol/L)>
-1.856433025

$$$$

CDXL12

 16 15  0  0  0  0  0  0  0  0999 V2000
   -1.7862   -0.2062    0.0000 N   0  0  0  0  0  0  0  2  0  0  0  0
   -1.0717    0.2063    0.0000 C   0  0  0  0  0  0  0  2  0  0  0  0
   -1.0717    1.0313    0.0000 S   0  0  0  0  0  0  0  2  0  0  0  0
   -0.3572   -0.2062    0.0000 S   0  0  0  0  0  0  0  2  0  0  0  0
    0.3572    0.2062    0.0000 S   0  0  0  0  0  0  0  2  0  0  0  0
    1.0717   -0.2062    0.0000 C   0  0  0  0  0  0  0  2  0  0  0  0
    1.7862    0.2062    0.0000 N   0  0  0  0  0  0  0  2  0  0  0  0
    2.5006   -0.2062    0.0000 C   0  0  0  0  0  0  0  2  0  0  0  0
    3.2151    0.2062    0.0000 C   0  0  0  0  0  0  0  2  0  0  0  0
    1.7862    1.0312    0.0000 C   0  0  0  0  0  0  0  2  0  0  0  0
    2.5006    1.4437    0.0000 C   0  0  0  0  0  0  0  2  0  0  0  0
    1.0717   -1.0312    0.0000 S   0  0  0  0  0  0  0  2  0  0  0  0
   -2.5006    0.2062    0.0000 C   0  0  0  0  0  0  0  2  0  0  0  0
   -3.2151   -0.2062    0.0000 C   0  0  0  0  0  0  0  2  0  0  0  0
   -1.7862   -1.0312    0.0000 C   0  0  0  0  0  0  0  2  0  0  0  0
   -2.5006   -1.4437    0.0000 C   0  0  0  0  0  0  0  2  0  0  0  0
  1  2  1  0        0
  2  3  2  0        0
  2  4  1  0        0
  4  5  1  0        0
  5  6  1  0        0
  6  7  1  0        0
  7  8  1  0        0
  8  9  1  0        0
  7 10  1  0        0
 10 11  1  0        0
  6 12  2  0        0
  1 13  1  0        0
 13 14  1  0        0
  1 15  1  0        0
 15 16  1  0        0
M  END
>  <CAS RN>
97778

>  <SMILES>
N(C(=S)SSC(N(CC)CC)=S)(CC)CC

>  <Measured or Estimated Log10(mmol/L)>
-3.392902037

$$$$

CDXL12

  7  7  0  0  0  0  0  0  0  0999 V2000
    1.3673   -0.2898    0.0000 O   0  0  0  0  0  0  0  2  0  0  0  0
    0.6529   -0.7023    0.0000 C   0  0  0  0  0  0  0  2  0  0  0  0
   -0.0616   -0.2898    0.0000 C   0  0  0  0  0  0  0  2  0  0  0  0
   -0.8153   -0.6253    0.0000 O   0  0  0  0  0  0  0  2  0  0  0  0
   -1.3673   -0.0122    0.0000 C   0  0  0  0  0  0  0  2  0  0  0  0
   -0.9548    0.7023    0.0000 C   0  0  0  0  0  0  0  2  0  0  0  0
   -0.1479    0.5307    0.0000 C   0  0  0  0  0  0  0  2  0  0  0  0
  1  2  2  0        0
  2  3  1  0        0
  3  4  1  0        0
  4  5  1  0        0
  5  6  1  0        0
  6  7  1  0        0
  3  7  1  0        0
M  END
>  <CAS RN>
98011

>  <SMILES>
O=CC1OCCC1

>  <Measured or Estimated Log10(mmol/L)>
-0.719310104

$$$$

CDXL12

 11 11  0  0  0  0  0  0  0  0999 V2000
    1.7862    0.8250    0.0000 F   0  0  0  0  0  0  0  2  0  0  0  0
    1.0717    0.4125    0.0000 C   0  0  0  0  0  0  0  2  0  0  0  0
    1.0717    1.2375    0.0000 F   0  0  0  0  0  0  0  2  0  0  0  0
    1.7862   -0.0000    0.0000 F   0  0  0  0  0  0  0  2  0  0  0  0
    0.3572   -0.0000    0.0000 C   0  0  0  0  0  0  0  2  0  0  0  0
    0.3572   -0.8250    0.0000 C   0  0  0  0  0  0  0  2  0  0  0  0
   -0.3572   -1.2375    0.0000 C   0  0  0  0  0  0  0  2  0  0  0  0
   -1.0717   -0.8250    0.0000 C   0  0  0  0  0  0  0  2  0  0  0  0
   -1.0717   -0.0000    0.0000 C   0  0  0  0  0  0  0  2  0  0  0  0
   -1.7862    0.4125    0.0000 N   0  0  0  0  0  0  0  2  0  0  0  0
   -0.3572    0.4125    0.0000 C   0  0  0  0  0  0  0  2  0  0  0  0
  1  2  1  0        0
  2  3  1  0        0
  2  4  1  0        0
  2  5  1  0        0
  5  6  4  0        0
  6  7  4  0        0
  7  8  4  0        0
  8  9  4  0        0
  9 10  1  0        0
  9 11  4  0        0
  5 11  4  0        0
M  END
>  <CAS RN>
98168

>  <SMILES>
FC(F)(F)c1cccc(N)c1

>  <Measured or Estimated Log10(mmol/L)>
-1.775801848

$$$$

CDXL12

 11 11  0  0  0  0  0  0  0  0999 V2000
    1.7862    0.8250    0.0000 F   0  0  0  0  0  0  0  2  0  0  0  0
    1.0717    0.4125    0.0000 C   0  0  0  0  0  0  0  2  0  0  0  0
    1.0717    1.2375    0.0000 F   0  0  0  0  0  0  0  2  0  0  0  0
    1.7862   -0.0000    0.0000 F   0  0  0  0  0  0  0  2  0  0  0  0
    0.3572   -0.0000    0.0000 C   0  0  0  0  0  0  0  2  0  0  0  0
    0.3572   -0.8250    0.0000 C   0  0  0  0  0  0  0  2  0  0  0  0
   -0.3572   -1.2375    0.0000 C   0  0  0  0  0  0  0  2  0  0  0  0
   -1.0717   -0.8250    0.0000 C   0  0  0  0  0  0  0  2  0  0  0  0
   -1.0717   -0.0000    0.0000 C   0  0  0  0  0  0  0  2  0  0  0  0
   -1.7862    0.4125    0.0000 O   0  0  0  0  0  0  0  2  0  0  0  0
   -0.3572    0.4125    0.0000 C   0  0  0  0  0  0  0  2  0  0  0  0
  1  2  1  0        0
  2  3  1  0        0
  2  4  1  0        0
  2  5  1  0        0
  5  6  4  0        0
  6  7  4  0        0
  7  8  4  0        0
  8  9  4  0        0
  9 10  1  0        0
  9 11  4  0        0
  5 11  4  0        0
M  END
>  <CAS RN>
98179

>  <SMILES>
FC(F)(F)c1cccc(O)c1

>  <Measured or Estimated Log10(mmol/L)>
-1.505842332

$$$$

CDXL12

 11 11  0  0  0  0  0  0  0  0999 V2000
    1.7862    0.8250    0.0000 F   0  0  0  0  0  0  0  2  0  0  0  0
    1.0717    0.4125    0.0000 C   0  0  0  0  0  0  0  2  0  0  0  0
    1.0717    1.2375    0.0000 F   0  0  0  0  0  0  0  2  0  0  0  0
    1.7862   -0.0000    0.0000 F   0  0  0  0  0  0  0  2  0  0  0  0
    0.3572   -0.0000    0.0000 C   0  0  0  0  0  0  0  2  0  0  0  0
    0.3572   -0.8250    0.0000 C   0  0  0  0  0  0  0  2  0  0  0  0
   -0.3572   -1.2375    0.0000 C   0  0  0  0  0  0  0  2  0  0  0  0
   -1.0717   -0.8250    0.0000 C   0  0  0  0  0  0  0  2  0  0  0  0
   -1.0717   -0.0000    0.0000 C   0  0  0  0  0  0  0  2  0  0  0  0
   -0.3572    0.4125    0.0000 C   0  0  0  0  0  0  0  2  0  0  0  0
   -1.7862   -1.2375    0.0000 Cl  0  0  0  0  0  0  0  2  0  0  0  0
  1  2  1  0        0
  2  3  1  0        0
  2  4  1  0        0
  2  5  1  0        0
  5  6  4  0        0
  6  7  4  0        0
  7  8  4  0        0
  8  9  4  0        0
  9 10  4  0        0
  5 10  4  0        0
  8 11  1  0        0
M  END
>  <CAS RN>
98566

>  <SMILES>
FC(F)(F)c1ccc(cc1)Cl

>  <Measured or Estimated Log10(mmol/L)>
-2.215219228

$$$$

CDXL12

  9  9  0  0  0  0  0  0  0  0999 V2000
    0.0000   -0.0000    0.0000 C   0  0  0  0  0  0  0  2  0  0  0  0
   -0.7145   -0.4125    0.0000 C   0  0  0  0  0  0  0  2  0  0  0  0
   -1.4289    0.0000    0.0000 C   0  0  0  0  0  0  0  2  0  0  0  0
   -1.4289    0.8250    0.0000 C   0  0  0  0  0  0  0  2  0  0  0  0
   -0.7145    1.2375    0.0000 C   0  0  0  0  0  0  0  2  0  0  0  0
    0.0000    0.8250    0.0000 C   0  0  0  0  0  0  0  2  0  0  0  0
    0.7145   -0.4125    0.0000 C   0  0  0  0  0  0  0  2  0  0  0  0
    0.7145   -1.2375    0.0000 C   0  0  0  0  0  0  0  2  0  0  0  0
    1.4289    0.0000    0.0000 C   0  0  0  0  0  0  0  2  0  0  0  0
  1  2  4  0        0
  2  3  4  0        0
  3  4  4  0        0
  4  5  4  0        0
  5  6  4  0        0
  1  6  4  0        0
  1  7  1  0        0
  7  8  1  0        0
  7  9  1  0        0
M  END
>  <CAS RN>
98828

>  <SMILES>
c1(ccccc1)C(C)C

>  <Measured or Estimated Log10(mmol/L)>
-0.627077586

$$$$

CDXL12

  9  9  0  0  0  0  0  0  0  0999 V2000
   -0.7145    1.2375    0.0000 O   0  0  0  0  0  0  0  2  0  0  0  0
   -0.7145    0.4125    0.0000 N   0  0  0  0  0  0  0  2  0  0  0  0
   -1.4289    0.0000    0.0000 O   0  0  0  0  0  0  0  2  0  0  0  0
    0.0000    0.0000    0.0000 C   0  0  0  0  0  0  0  2  0  0  0  0
    0.7145    0.4125    0.0000 C   0  0  0  0  0  0  0  2  0  0  0  0
    1.4289   -0.0000    0.0000 C   0  0  0  0  0  0  0  2  0  0  0  0
    1.4289   -0.8250    0.0000 C   0  0  0  0  0  0  0  2  0  0  0  0
    0.7145   -1.2375    0.0000 C   0  0  0  0  0  0  0  2  0  0  0  0
    0.0000   -0.8250    0.0000 C   0  0  0  0  0  0  0  2  0  0  0  0
  1  2  2  0        0
  2  3  2  0        0
  2  4  1  0        0
  4  5  4  0        0
  5  6  4  0        0
  6  7  4  0        0
  7  8  4  0        0
  8  9  4  0        0
  4  9  4  0        0
M  END
>  <CAS RN>
98953

>  <SMILES>
O=N(=O)c1ccccc1

>  <Measured or Estimated Log10(mmol/L)>
-0.571782919

$$$$

CDXL12

 10 10  0  0  0  0  0  0  0  0999 V2000
    1.0717    1.2375    0.0000 O   0  0  0  0  0  0  0  2  0  0  0  0
    1.0717    0.4125    0.0000 C   0  0  0  0  0  0  0  2  0  0  0  0
    1.7862   -0.0000    0.0000 O   0  0  0  0  0  0  0  2  0  0  0  0
    0.3572   -0.0000    0.0000 C   0  0  0  0  0  0  0  2  0  0  0  0
    0.3572   -0.8250    0.0000 C   0  0  0  0  0  0  0  2  0  0  0  0
   -0.3572   -1.2375    0.0000 C   0  0  0  0  0  0  0  2  0  0  0  0
   -1.0717   -0.8250    0.0000 C   0  0  0  0  0  0  0  2  0  0  0  0
   -1.0717    0.0000    0.0000 C   0  0  0  0  0  0  0  2  0  0  0  0
   -1.7862    0.4125    0.0000 N   0  0  0  0  0  0  0  2  0  0  0  0
   -0.3572    0.4125    0.0000 C   0  0  0  0  0  0  0  2  0  0  0  0
  1  2  2  0        0
  2  3  1  0        0
  2  4  1  0        0
  4  5  4  0        0
  5  6  4  0        0
  6  7  4  0        0
  7  8  4  0        0
  8  9  1  0        0
  8 10  4  0        0
  4 10  4  0        0
M  END
>  <CAS RN>
99058

>  <SMILES>
O=C(O)c1cccc(N)c1

>  <Measured or Estimated Log10(mmol/L)>
-0.170103118

$$$$

CDXL12

 10 10  0  0  0  0  0  0  0  0999 V2000
   -1.0717    1.2375    0.0000 O   0  0  0  0  0  0  0  2  0  0  0  0
   -1.0717    0.4125    0.0000 N   0  0  0  0  0  0  0  2  0  0  0  0
   -1.7862   -0.0000    0.0000 O   0  0  0  0  0  0  0  2  0  0  0  0
   -0.3572   -0.0000    0.0000 C   0  0  0  0  0  0  0  2  0  0  0  0
   -0.3572   -0.8250    0.0000 C   0  0  0  0  0  0  0  2  0  0  0  0
    0.3572   -1.2375    0.0000 C   0  0  0  0  0  0  0  2  0  0  0  0
    1.0717   -0.8250    0.0000 C   0  0  0  0  0  0  0  2  0  0  0  0
    1.0717    0.0000    0.0000 C   0  0  0  0  0  0  0  2  0  0  0  0
    1.7862    0.4125    0.0000 C   0  0  0  0  0  0  0  2  0  0  0  0
    0.3572    0.4125    0.0000 C   0  0  0  0  0  0  0  2  0  0  0  0
  1  2  2  0        0
  2  3  2  0        0
  2  4  1  0        0
  4  5  4  0        0
  5  6  4  0        0
  6  7  4  0        0
  7  8  4  0        0
  8  9  1  0        0
  8 10  4  0        0
  4 10  4  0        0
M  END
>  <CAS RN>
99081

>  <SMILES>
O=N(=O)c1cccc(C)c1

>  <Measured or Estimated Log10(mmol/L)>
-1.262096548

$$$$

CDXL12

 10 10  0  0  0  0  0  0  0  0999 V2000
   -1.0717    1.2375    0.0000 O   0  0  0  0  0  0  0  2  0  0  0  0
   -1.0717    0.4125    0.0000 N   0  0  0  0  0  0  0  2  0  0  0  0
   -1.7862   -0.0000    0.0000 O   0  0  0  0  0  0  0  2  0  0  0  0
   -0.3572   -0.0000    0.0000 C   0  0  0  0  0  0  0  2  0  0  0  0
   -0.3572   -0.8250    0.0000 C   0  0  0  0  0  0  0  2  0  0  0  0
    0.3572   -1.2375    0.0000 C   0  0  0  0  0  0  0  2  0  0  0  0
    1.0717   -0.8250    0.0000 C   0  0  0  0  0  0  0  2  0  0  0  0
    1.0717    0.0000    0.0000 C   0  0  0  0  0  0  0  2  0  0  0  0
    1.7862    0.4125    0.0000 N   0  0  0  0  0  0  0  2  0  0  0  0
    0.3572    0.4125    0.0000 C   0  0  0  0  0  0  0  2  0  0  0  0
  1  2  2  0        0
  2  3  2  0        0
  2  4  1  0        0
  4  5  4  0        0
  5  6  4  0        0
  6  7  4  0        0
  7  8  4  0        0
  8  9  1  0        0
  8 10  4  0        0
  4 10  4  0        0
M  END
>  <CAS RN>
99092

>  <SMILES>
O=N(=O)c1cccc(N)c1

>  <Measured or Estimated Log10(mmol/L)>
-2.14904935

$$$$

CDXL12

 15 15  0  0  0  0  0  0  0  0999 V2000
   -1.4289    1.8562    0.0000 O   0  0  0  0  0  0  0  2  0  0  0  0
   -1.4289    1.0312    0.0000 N   0  0  0  0  0  0  0  2  0  0  0  0
   -2.1434    0.6187    0.0000 O   0  0  0  0  0  0  0  2  0  0  0  0
   -0.7145    0.6187    0.0000 C   0  0  0  0  0  0  0  2  0  0  0  0
   -0.7145   -0.2063    0.0000 C   0  0  0  0  0  0  0  2  0  0  0  0
    0.0000   -0.6188    0.0000 C   0  0  0  0  0  0  0  2  0  0  0  0
    0.0000   -1.4437    0.0000 N   0  0  0  0  0  0  0  2  0  0  0  0
   -0.7145   -1.8562    0.0000 O   0  0  0  0  0  0  0  2  0  0  0  0
    0.7145   -1.8562    0.0000 O   0  0  0  0  0  0  0  2  0  0  0  0
    0.7145   -0.2063    0.0000 C   0  0  0  0  0  0  0  2  0  0  0  0
    0.7145    0.6187    0.0000 C   0  0  0  0  0  0  0  2  0  0  0  0
    1.4289    1.0312    0.0000 N   0  0  0  0  0  0  0  2  0  0  0  0
    1.4289    1.8562    0.0000 O   0  0  0  0  0  0  0  2  0  0  0  0
    2.1434    0.6187    0.0000 O   0  0  0  0  0  0  0  2  0  0  0  0
    0.0000    1.0312    0.0000 C   0  0  0  0  0  0  0  2  0  0  0  0
  1  2  2  0        0
  2  3  2  0        0
  2  4  1  0        0
  4  5  4  0        0
  5  6  4  0        0
  6  7  1  0        0
  7  8  2  0        0
  7  9  2  0        0
  6 10  4  0        0
 10 11  4  0        0
 11 12  1  0        0
 12 13  2  0        0
 12 14  2  0        0
 11 15  4  0        0
  4 15  4  0        0
M  END
>  <CAS RN>
99354

>  <SMILES>
O=N(=O)c1cc(N(=O)=O)cc(N(=O)=O)c1

>  <Measured or Estimated Log10(mmol/L)>
-1.9

$$$$

CDXL12

 11 11  0  0  0  0  0  0  0  0999 V2000
   -1.0717    1.2375    0.0000 O   0  0  0  0  0  0  0  2  0  0  0  0
   -1.0717    0.4125    0.0000 N   0  0  0  0  0  0  0  2  0  0  0  0
   -1.7862   -0.0000    0.0000 O   0  0  0  0  0  0  0  2  0  0  0  0
   -0.3572   -0.0000    0.0000 C   0  0  0  0  0  0  0  2  0  0  0  0
   -0.3572   -0.8250    0.0000 C   0  0  0  0  0  0  0  2  0  0  0  0
    0.3572   -1.2375    0.0000 C   0  0  0  0  0  0  0  2  0  0  0  0
    1.0717   -0.8250    0.0000 C   0  0  0  0  0  0  0  2  0  0  0  0
    1.7862   -1.2375    0.0000 C   0  0  0  0  0  0  0  2  0  0  0  0
    1.0717    0.0000    0.0000 C   0  0  0  0  0  0  0  2  0  0  0  0
    1.7862    0.4125    0.0000 C   0  0  0  0  0  0  0  2  0  0  0  0
    0.3572    0.4125    0.0000 C   0  0  0  0  0  0  0  2  0  0  0  0
  1  2  2  0        0
  2  3  2  0        0
  2  4  1  0        0
  4  5  4  0        0
  5  6  4  0        0
  6  7  4  0        0
  7  8  1  0        0
  7  9  4  0        0
  9 10  1  0        0
  9 11  4  0        0
  4 11  4  0        0
M  END
>  <CAS RN>
99514

>  <SMILES>
O=N(=O)c1ccc(C)c(C)c1

>  <Measured or Estimated Log10(mmol/L)>
-0.975331266

$$$$

CDXL12

 11 11  0  0  0  0  0  0  0  0999 V2000
   -1.0717    1.2375    0.0000 O   0  0  0  0  0  0  0  2  0  0  0  0
   -1.0717    0.4125    0.0000 N   0  0  0  0  0  0  0  2  0  0  0  0
   -1.7862   -0.0000    0.0000 O   0  0  0  0  0  0  0  2  0  0  0  0
   -0.3572   -0.0000    0.0000 C   0  0  0  0  0  0  0  2  0  0  0  0
   -0.3572   -0.8250    0.0000 C   0  0  0  0  0  0  0  2  0  0  0  0
    0.3572   -1.2375    0.0000 C   0  0  0  0  0  0  0  2  0  0  0  0
    1.0717   -0.8250    0.0000 C   0  0  0  0  0  0  0  2  0  0  0  0
    1.0717    0.0000    0.0000 C   0  0  0  0  0  0  0  2  0  0  0  0
    1.7862    0.4125    0.0000 Cl  0  0  0  0  0  0  0  2  0  0  0  0
    0.3572    0.4125    0.0000 C   0  0  0  0  0  0  0  2  0  0  0  0
    1.7862   -1.2375    0.0000 Cl  0  0  0  0  0  0  0  2  0  0  0  0
  1  2  2  0        0
  2  3  2  0        0
  2  4  1  0        0
  4  5  4  0        0
  5  6  4  0        0
  6  7  4  0        0
  7  8  4  0        0
  8  9  1  0        0
  8 10  4  0        0
  4 10  4  0        0
  7 11  1  0        0
M  END
>  <CAS RN>
99547

>  <SMILES>
O=N(=O)c1ccc(c(Cl)c1)Cl

>  <Measured or Estimated Log10(mmol/L)>
-1.569894509

$$$$

CDXL12

 12 12  0  0  0  0  0  0  0  0999 V2000
   -1.4289    1.2375    0.0000 O   0  0  0  0  0  0  0  2  0  0  0  0
   -1.4289    0.4125    0.0000 N   0  0  0  0  0  0  0  2  0  0  0  0
   -2.1434   -0.0000    0.0000 O   0  0  0  0  0  0  0  2  0  0  0  0
   -0.7145   -0.0000    0.0000 C   0  0  0  0  0  0  0  2  0  0  0  0
   -0.7145   -0.8250    0.0000 C   0  0  0  0  0  0  0  2  0  0  0  0
    0.0000   -1.2375    0.0000 C   0  0  0  0  0  0  0  2  0  0  0  0
    0.7145   -0.8250    0.0000 C   0  0  0  0  0  0  0  2  0  0  0  0
    0.7145   -0.0000    0.0000 C   0  0  0  0  0  0  0  2  0  0  0  0
    1.4289    0.4125    0.0000 N   0  0  0  0  0  0  0  2  0  0  0  0
    1.4289    1.2375    0.0000 O   0  0  0  0  0  0  0  2  0  0  0  0
    2.1434   -0.0000    0.0000 O   0  0  0  0  0  0  0  2  0  0  0  0
    0.0000    0.4125    0.0000 C   0  0  0  0  0  0  0  2  0  0  0  0
  1  2  2  0        0
  2  3  2  0        0
  2  4  1  0        0
  4  5  4  0        0
  5  6  4  0        0
  6  7  4  0        0
  7  8  4  0        0
  8  9  1  0        0
  9 10  2  0        0
  9 11  2  0        0
  8 12  4  0        0
  4 12  4  0        0
M  END
>  <CAS RN>
99650

>  <SMILES>
O=N(=O)c1cccc(N(=O)=O)c1

>  <Measured or Estimated Log10(mmol/L)>
-0.592119926

$$$$

CDXL12

 10 10  0  0  0  0  0  0  0  0999 V2000
    0.3572   -0.0000    0.0000 C   0  0  0  0  0  0  0  2  0  0  0  0
   -0.3572   -0.4125    0.0000 C   0  0  0  0  0  0  0  2  0  0  0  0
   -1.0717    0.0000    0.0000 C   0  0  0  0  0  0  0  2  0  0  0  0
   -1.0717    0.8250    0.0000 C   0  0  0  0  0  0  0  2  0  0  0  0
   -0.3572    1.2375    0.0000 C   0  0  0  0  0  0  0  2  0  0  0  0
    0.3572    0.8250    0.0000 C   0  0  0  0  0  0  0  2  0  0  0  0
   -1.7862    1.2375    0.0000 C   0  0  0  0  0  0  0  2  0  0  0  0
    1.0717   -0.4125    0.0000 C   0  0  0  0  0  0  0  2  0  0  0  0
    1.0717   -1.2375    0.0000 C   0  0  0  0  0  0  0  2  0  0  0  0
    1.7862    0.0000    0.0000 C   0  0  0  0  0  0  0  2  0  0  0  0
  1  2  4  0        0
  2  3  4  0        0
  3  4  4  0        0
  4  5  4  0        0
  5  6  4  0        0
  1  6  4  0        0
  4  7  1  0        0
  1  8  1  0        0
  8  9  1  0        0
  8 10  1  0        0
M  END
>  <CAS RN>
99876

>  <SMILES>
c1(ccc(cc1)C)C(C)C

>  <Measured or Estimated Log10(mmol/L)>
-1.314910349

$$$$

CDXL12

 10 10  0  0  0  0  0  0  0  0999 V2000
    1.0717    1.2375    0.0000 O   0  0  0  0  0  0  0  2  0  0  0  0
    1.0717    0.4125    0.0000 C   0  0  0  0  0  0  0  2  0  0  0  0
    0.3572   -0.0000    0.0000 C   0  0  0  0  0  0  0  2  0  0  0  0
   -0.3572    0.4125    0.0000 C   0  0  0  0  0  0  0  2  0  0  0  0
   -1.0717   -0.0000    0.0000 C   0  0  0  0  0  0  0  2  0  0  0  0
   -1.0717   -0.8250    0.0000 C   0  0  0  0  0  0  0  2  0  0  0  0
   -1.7862   -1.2375    0.0000 N   0  0  0  0  0  0  0  2  0  0  0  0
   -0.3572   -1.2375    0.0000 C   0  0  0  0  0  0  0  2  0  0  0  0
    0.3572   -0.8250    0.0000 C   0  0  0  0  0  0  0  2  0  0  0  0
    1.7862   -0.0000    0.0000 C   0  0  0  0  0  0  0  2  0  0  0  0
  1  2  2  0        0
  2  3  1  0        0
  3  4  4  0        0
  4  5  4  0        0
  5  6  4  0        0
  6  7  1  0        0
  6  8  4  0        0
  8  9  4  0        0
  3  9  4  0        0
  2 10  1  0        0
M  END
>  <CAS RN>
99923

>  <SMILES>
O=C(c1ccc(N)cc1)C

>  <Measured or Estimated Log10(mmol/L)>
-1.431897448

$$$$

CDXL12

 10 10  0  0  0  0  0  0  0  0999 V2000
    1.0717    1.2375    0.0000 O   0  0  0  0  0  0  0  2  0  0  0  0
    1.0717    0.4125    0.0000 C   0  0  0  0  0  0  0  2  0  0  0  0
    0.3572   -0.0000    0.0000 C   0  0  0  0  0  0  0  2  0  0  0  0
   -0.3572    0.4125    0.0000 C   0  0  0  0  0  0  0  2  0  0  0  0
   -1.0717   -0.0000    0.0000 C   0  0  0  0  0  0  0  2  0  0  0  0
   -1.0717   -0.8250    0.0000 C   0  0  0  0  0  0  0  2  0  0  0  0
   -1.7862   -1.2375    0.0000 O   0  0  0  0  0  0  0  2  0  0  0  0
   -0.3572   -1.2375    0.0000 C   0  0  0  0  0  0  0  2  0  0  0  0
    0.3572   -0.8250    0.0000 C   0  0  0  0  0  0  0  2  0  0  0  0
    1.7862   -0.0000    0.0000 C   0  0  0  0  0  0  0  2  0  0  0  0
  1  2  2  0        0
  2  3  1  0        0
  3  4  4  0        0
  4  5  4  0        0
  5  6  4  0        0
  6  7  1  0        0
  6  8  4  0        0
  8  9  4  0        0
  3  9  4  0        0
  2 10  1  0        0
M  END
>  <CAS RN>
99934

>  <SMILES>
O=C(c1ccc(O)cc1)C

>  <Measured or Estimated Log10(mmol/L)>
-0.686859605

$$$$

CDXL12

 10 10  0  0  0  0  0  0  0  0999 V2000
    1.0717    1.2375    0.0000 O   0  0  0  0  0  0  0  2  0  0  0  0
    1.0717    0.4125    0.0000 C   0  0  0  0  0  0  0  2  0  0  0  0
    1.7862   -0.0000    0.0000 O   0  0  0  0  0  0  0  2  0  0  0  0
    0.3572   -0.0000    0.0000 C   0  0  0  0  0  0  0  2  0  0  0  0
   -0.3572    0.4125    0.0000 C   0  0  0  0  0  0  0  2  0  0  0  0
   -1.0717   -0.0000    0.0000 C   0  0  0  0  0  0  0  2  0  0  0  0
   -1.0717   -0.8250    0.0000 C   0  0  0  0  0  0  0  2  0  0  0  0
   -1.7862   -1.2375    0.0000 O   0  0  0  0  0  0  0  2  0  0  0  0
   -0.3572   -1.2375    0.0000 C   0  0  0  0  0  0  0  2  0  0  0  0
    0.3572   -0.8250    0.0000 C   0  0  0  0  0  0  0  2  0  0  0  0
  1  2  2  0        0
  2  3  1  0        0
  2  4  1  0        0
  4  5  4  0        0
  5  6  4  0        0
  6  7  4  0        0
  7  8  1  0        0
  7  9  4  0        0
  9 10  4  0        0
  4 10  4  0        0
M  END
>  <CAS RN>
99967

>  <SMILES>
O=C(O)c1ccc(O)cc1

>  <Measured or Estimated Log10(mmol/L)>
0.097783254

$$$$

CDXL12

 10 10  0  0  0  0  0  0  0  0999 V2000
   -1.0717    1.2375    0.0000 O   0  0  0  0  0  0  0  2  0  0  0  0
   -1.0717    0.4125    0.0000 N   0  0  0  0  0  0  0  2  0  0  0  0
   -1.7862    0.0000    0.0000 O   0  0  0  0  0  0  0  2  0  0  0  0
   -0.3572    0.0000    0.0000 C   0  0  0  0  0  0  0  2  0  0  0  0
    0.3572    0.4125    0.0000 C   0  0  0  0  0  0  0  2  0  0  0  0
    1.0717    0.0000    0.0000 C   0  0  0  0  0  0  0  2  0  0  0  0
    1.0717   -0.8250    0.0000 C   0  0  0  0  0  0  0  2  0  0  0  0
    0.3572   -1.2375    0.0000 C   0  0  0  0  0  0  0  2  0  0  0  0
   -0.3572   -0.8250    0.0000 C   0  0  0  0  0  0  0  2  0  0  0  0
    1.7862   -1.2375    0.0000 C   0  0  0  0  0  0  0  2  0  0  0  0
  1  2  2  0        0
  2  3  2  0        0
  2  4  1  0        0
  4  5  4  0        0
  5  6  4  0        0
  6  7  4  0        0
  7  8  4  0        0
  8  9  4  0        0
  4  9  4  0        0
  7 10  1  0        0
M  END
>  <CAS RN>
99990

>  <SMILES>
O=N(=O)c1ccc(cc1)C

>  <Measured or Estimated Log10(mmol/L)>
-1.262096548

$$$$

CDXL12

 10 10  0  0  0  0  0  0  0  0999 V2000
   -1.0717    1.2375    0.0000 O   0  0  0  0  0  0  0  2  0  0  0  0
   -1.0717    0.4125    0.0000 N   0  0  0  0  0  0  0  2  0  0  0  0
   -1.7862    0.0000    0.0000 O   0  0  0  0  0  0  0  2  0  0  0  0
   -0.3572    0.0000    0.0000 C   0  0  0  0  0  0  0  2  0  0  0  0
    0.3572    0.4125    0.0000 C   0  0  0  0  0  0  0  2  0  0  0  0
    1.0717    0.0000    0.0000 C   0  0  0  0  0  0  0  2  0  0  0  0
    1.0717   -0.8250    0.0000 C   0  0  0  0  0  0  0  2  0  0  0  0
    0.3572   -1.2375    0.0000 C   0  0  0  0  0  0  0  2  0  0  0  0
   -0.3572   -0.8250    0.0000 C   0  0  0  0  0  0  0  2  0  0  0  0
    1.7862   -1.2375    0.0000 Cl  0  0  0  0  0  0  0  2  0  0  0  0
  1  2  2  0        0
  2  3  2  0        0
  2  4  1  0        0
  4  5  4  0        0
  5  6  4  0        0
  6  7  4  0        0
  7  8  4  0        0
  8  9  4  0        0
  4  9  4  0        0
  7 10  1  0        0
M  END
>  <CAS RN>
100005

>  <SMILES>
O=N(=O)c1ccc(cc1)Cl

>  <Measured or Estimated Log10(mmol/L)>
-1.371360144

$$$$

CDXL12

 10 10  0  0  0  0  0  0  0  0999 V2000
   -1.0717    1.2375    0.0000 O   0  0  0  0  0  0  0  2  0  0  0  0
   -1.0717    0.4125    0.0000 N   0  0  0  0  0  0  0  2  0  0  0  0
   -1.7862    0.0000    0.0000 O   0  0  0  0  0  0  0  2  0  0  0  0
   -0.3572    0.0000    0.0000 C   0  0  0  0  0  0  0  2  0  0  0  0
    0.3572    0.4125    0.0000 C   0  0  0  0  0  0  0  2  0  0  0  0
    1.0717    0.0000    0.0000 C   0  0  0  0  0  0  0  2  0  0  0  0
    1.0717   -0.8250    0.0000 C   0  0  0  0  0  0  0  2  0  0  0  0
    1.7862   -1.2375    0.0000 N   0  0  0  0  0  0  0  2  0  0  0  0
    0.3572   -1.2375    0.0000 C   0  0  0  0  0  0  0  2  0  0  0  0
   -0.3572   -0.8250    0.0000 C   0  0  0  0  0  0  0  2  0  0  0  0
  1  2  2  0        0
  2  3  2  0        0
  2  4  1  0        0
  4  5  4  0        0
  5  6  4  0        0
  6  7  4  0        0
  7  8  1  0        0
  7  9  4  0        0
  9 10  4  0        0
  4 10  4  0        0
M  END
>  <CAS RN>
100016

>  <SMILES>
O=N(=O)c1ccc(N)cc1

>  <Measured or Estimated Log10(mmol/L)>
-1.0825956

$$$$

CDXL12

 10 10  0  0  0  0  0  0  0  0999 V2000
   -1.0717    1.2375    0.0000 O   0  0  0  0  0  0  0  2  0  0  0  0
   -1.0717    0.4125    0.0000 N   0  0  0  0  0  0  0  2  0  0  0  0
   -1.7862    0.0000    0.0000 O   0  0  0  0  0  0  0  2  0  0  0  0
   -0.3572    0.0000    0.0000 C   0  0  0  0  0  0  0  2  0  0  0  0
    0.3572    0.4125    0.0000 C   0  0  0  0  0  0  0  2  0  0  0  0
    1.0717    0.0000    0.0000 C   0  0  0  0  0  0  0  2  0  0  0  0
    1.0717   -0.8250    0.0000 C   0  0  0  0  0  0  0  2  0  0  0  0
    1.7862   -1.2375    0.0000 O   0  0  0  0  0  0  0  2  0  0  0  0
    0.3572   -1.2375    0.0000 C   0  0  0  0  0  0  0  2  0  0  0  0
   -0.3572   -0.8250    0.0000 C   0  0  0  0  0  0  0  2  0  0  0  0
  1  2  2  0        0
  2  3  2  0        0
  2  4  1  0        0
  4  5  4  0        0
  5  6  4  0        0
  6  7  4  0        0
  7  8  1  0        0
  7  9  4  0        0
  9 10  4  0        0
  4 10  4  0        0
M  END
>  <CAS RN>
100027

>  <SMILES>
O=N(=O)c1ccc(O)cc1

>  <Measured or Estimated Log10(mmol/L)>
-1.219079065

$$$$

CDXL12

 12 12  0  0  0  0  0  0  0  0999 V2000
    1.4289   -1.6500    0.0000 O   0  0  0  0  0  0  0  2  0  0  0  0
    1.4289   -0.8250    0.0000 N   0  0  0  0  0  0  0  2  0  0  0  0
    2.1434   -0.4125    0.0000 O   0  0  0  0  0  0  0  2  0  0  0  0
    0.7145   -0.4125    0.0000 C   0  0  0  0  0  0  0  2  0  0  0  0
    0.0000   -0.8250    0.0000 C   0  0  0  0  0  0  0  2  0  0  0  0
   -0.7145   -0.4125    0.0000 C   0  0  0  0  0  0  0  2  0  0  0  0
   -0.7145    0.4125    0.0000 C   0  0  0  0  0  0  0  2  0  0  0  0
   -1.4289    0.8250    0.0000 N   0  0  0  0  0  0  0  2  0  0  0  0
   -1.4289    1.6500    0.0000 O   0  0  0  0  0  0  0  2  0  0  0  0
   -2.1434    0.4125    0.0000 O   0  0  0  0  0  0  0  2  0  0  0  0
    0.0000    0.8250    0.0000 C   0  0  0  0  0  0  0  2  0  0  0  0
    0.7145    0.4125    0.0000 C   0  0  0  0  0  0  0  2  0  0  0  0
  1  2  2  0        0
  2  3  2  0        0
  2  4  1  0        0
  4  5  4  0        0
  5  6  4  0        0
  6  7  4  0        0
  7  8  1  0        0
  8  9  2  0        0
  8 10  2  0        0
  7 11  4  0        0
 11 12  4  0        0
  4 12  4  0        0
M  END
>  <CAS RN>
100254

>  <SMILES>
O=N(=O)c1ccc(N(=O)=O)cc1

>  <Measured or Estimated Log10(mmol/L)>
-2.11

$$$$

CDXL12

  8  8  0  0  0  0  0  0  0  0999 V2000
    0.0000   -0.4125    0.0000 C   0  0  0  0  0  0  0  2  0  0  0  0
   -0.7145   -0.8250    0.0000 C   0  0  0  0  0  0  0  2  0  0  0  0
   -1.4289   -0.4125    0.0000 C   0  0  0  0  0  0  0  2  0  0  0  0
   -1.4289    0.4125    0.0000 C   0  0  0  0  0  0  0  2  0  0  0  0
   -0.7145    0.8250    0.0000 C   0  0  0  0  0  0  0  2  0  0  0  0
    0.0000    0.4125    0.0000 C   0  0  0  0  0  0  0  2  0  0  0  0
    0.7145   -0.8250    0.0000 C   0  0  0  0  0  0  0  2  0  0  0  0
    1.4289   -0.4125    0.0000 C   0  0  0  0  0  0  0  2  0  0  0  0
  1  2  4  0        0
  2  3  4  0        0
  3  4  4  0        0
  4  5  4  0        0
  5  6  4  0        0
  1  6  4  0        0
  1  7  1  0        0
  7  8  1  0        0
M  END
>  <CAS RN>
100414

>  <SMILES>
c1(ccccc1)CC

>  <Measured or Estimated Log10(mmol/L)>
-0.761175813

$$$$

CDXL12

  8  8  0  0  0  0  0  0  0  0999 V2000
    0.0000   -0.4125    0.0000 C   0  0  0  0  0  0  0  2  0  0  0  0
   -0.7145   -0.8250    0.0000 C   0  0  0  0  0  0  0  2  0  0  0  0
   -1.4289   -0.4125    0.0000 C   0  0  0  0  0  0  0  2  0  0  0  0
   -1.4289    0.4125    0.0000 C   0  0  0  0  0  0  0  2  0  0  0  0
   -0.7145    0.8250    0.0000 C   0  0  0  0  0  0  0  2  0  0  0  0
    0.0000    0.4125    0.0000 C   0  0  0  0  0  0  0  2  0  0  0  0
    0.7145   -0.8250    0.0000 C   0  0  0  0  0  0  0  2  0  0  0  0
    1.4289   -0.4125    0.0000 C   0  0  0  0  0  0  0  2  0  0  0  0
  1  2  4  0        0
  2  3  4  0        0
  3  4  4  0        0
  4  5  4  0        0
  5  6  4  0        0
  1  6  4  0        0
  1  7  1  0        0
  7  8  2  0        0
M  END
>  <CAS RN>
100425

>  <SMILES>
c1(ccccc1)C=C

>  <Measured or Estimated Log10(mmol/L)>
-0.655939778

$$$$

CDXL12

  8  8  0  0  0  0  0  0  0  0999 V2000
    0.0000   -0.4125    0.0000 C   0  0  0  0  0  0  0  2  0  0  0  0
   -0.7145   -0.8250    0.0000 C   0  0  0  0  0  0  0  2  0  0  0  0
   -1.4289   -0.4125    0.0000 C   0  0  0  0  0  0  0  2  0  0  0  0
   -1.4289    0.4125    0.0000 C   0  0  0  0  0  0  0  2  0  0  0  0
   -0.7145    0.8250    0.0000 C   0  0  0  0  0  0  0  2  0  0  0  0
    0.0000    0.4125    0.0000 C   0  0  0  0  0  0  0  2  0  0  0  0
    0.7145   -0.8250    0.0000 C   0  0  0  0  0  0  0  2  0  0  0  0
    1.4289   -0.4125    0.0000 Cl  0  0  0  0  0  0  0  2  0  0  0  0
  1  2  4  0        0
  2  3  4  0        0
  3  4  4  0        0
  4  5  4  0        0
  5  6  4  0        0
  1  6  4  0        0
  1  7  1  0        0
  7  8  1  0        0
M  END
>  <CAS RN>
100447

>  <SMILES>
c1(ccccc1)CCl

>  <Measured or Estimated Log10(mmol/L)>
-1.5178458

$$$$

CDXL12

  8  8  0  0  0  0  0  0  0  0999 V2000
   -1.4289   -1.0312    0.0000 N   0  0  0  0  0  0  0  2  0  0  0  0
   -0.7145   -0.6187    0.0000 C   0  0  0  0  0  0  0  2  0  0  0  0
    0.0000   -0.2062    0.0000 C   0  0  0  0  0  0  0  2  0  0  0  0
    0.0000    0.6188    0.0000 C   0  0  0  0  0  0  0  2  0  0  0  0
    0.7145    1.0312    0.0000 C   0  0  0  0  0  0  0  2  0  0  0  0
    1.4289    0.6188    0.0000 C   0  0  0  0  0  0  0  2  0  0  0  0
    1.4289   -0.2062    0.0000 C   0  0  0  0  0  0  0  2  0  0  0  0
    0.7145   -0.6187    0.0000 C   0  0  0  0  0  0  0  2  0  0  0  0
  1  2  3  0        0
  2  3  1  0        0
  3  4  4  0        0
  4  5  4  0        0
  5  6  4  0        0
  6  7  4  0        0
  7  8  4  0        0
  3  8  4  0        0
M  END
>  <CAS RN>
100470

>  <SMILES>
N#Cc1ccccc1

>  <Measured or Estimated Log10(mmol/L)>
0.0055299

$$$$

CDXL12

  8  8  0  0  0  0  0  0  0  0999 V2000
    1.4289   -0.4125    0.0000 O   0  0  0  0  0  0  0  2  0  0  0  0
    0.7145   -0.8250    0.0000 C   0  0  0  0  0  0  0  2  0  0  0  0
    0.0000   -0.4125    0.0000 C   0  0  0  0  0  0  0  2  0  0  0  0
   -0.7145   -0.8250    0.0000 C   0  0  0  0  0  0  0  2  0  0  0  0
   -1.4289   -0.4125    0.0000 C   0  0  0  0  0  0  0  2  0  0  0  0
   -1.4289    0.4125    0.0000 C   0  0  0  0  0  0  0  2  0  0  0  0
   -0.7145    0.8250    0.0000 C   0  0  0  0  0  0  0  2  0  0  0  0
    0.0000    0.4125    0.0000 C   0  0  0  0  0  0  0  2  0  0  0  0
  1  2  2  0        0
  2  3  1  0        0
  3  4  4  0        0
  4  5  4  0        0
  5  6  4  0        0
  6  7  4  0        0
  7  8  4  0        0
  3  8  4  0        0
M  END
>  <CAS RN>
100527

>  <SMILES>
O=Cc1ccccc1

>  <Measured or Estimated Log10(mmol/L)>
-0.6369823

$$$$

CDXL12

  8  8  0  0  0  0  0  0  0  0999 V2000
    0.7145   -0.8250    0.0000 N   0  0  0  0  0  0  0  2  0  0  0  0
    0.0000   -0.4125    0.0000 C   0  0  0  0  0  0  0  2  0  0  0  0
   -0.7145   -0.8250    0.0000 C   0  0  0  0  0  0  0  2  0  0  0  0
   -1.4289   -0.4125    0.0000 C   0  0  0  0  0  0  0  2  0  0  0  0
   -1.4289    0.4125    0.0000 C   0  0  0  0  0  0  0  2  0  0  0  0
   -0.7145    0.8250    0.0000 C   0  0  0  0  0  0  0  2  0  0  0  0
    0.0000    0.4125    0.0000 C   0  0  0  0  0  0  0  2  0  0  0  0
    1.4289   -0.4125    0.0000 C   0  0  0  0  0  0  0  2  0  0  0  0
  1  2  1  0        0
  2  3  4  0        0
  3  4  4  0        0
  4  5  4  0        0
  5  6  4  0        0
  6  7  4  0        0
  2  7  4  0        0
  1  8  1  0        0
M  END
>  <CAS RN>
100618

>  <SMILES>
N(c1ccccc1)C

>  <Measured or Estimated Log10(mmol/L)>
-2.786978445

$$$$

CDXL12

  9  9  0  0  0  0  0  0  0  0999 V2000
    1.7862   -0.4125    0.0000 O   0  0  0  0  0  0  0  2  0  0  0  0
    1.0717   -0.8250    0.0000 C   0  0  0  0  0  0  0  2  0  0  0  0
    0.3572   -0.4125    0.0000 C   0  0  0  0  0  0  0  2  0  0  0  0
    0.3572    0.4125    0.0000 C   0  0  0  0  0  0  0  2  0  0  0  0
   -0.3572    0.8250    0.0000 C   0  0  0  0  0  0  0  2  0  0  0  0
   -1.0717    0.4125    0.0000 C   0  0  0  0  0  0  0  2  0  0  0  0
   -1.0717   -0.4125    0.0000 C   0  0  0  0  0  0  0  2  0  0  0  0
   -1.7862   -0.8250    0.0000 O   0  0  0  0  0  0  0  2  0  0  0  0
   -0.3572   -0.8250    0.0000 C   0  0  0  0  0  0  0  2  0  0  0  0
  1  2  2  0        0
  2  3  1  0        0
  3  4  4  0        0
  4  5  4  0        0
  5  6  4  0        0
  6  7  4  0        0
  7  8  1  0        0
  7  9  4  0        0
  3  9  4  0        0
M  END
>  <CAS RN>
100834

>  <SMILES>
O=Cc1cccc(O)c1

>  <Measured or Estimated Log10(mmol/L)>
-0.59543576

$$$$

CDXL12

 16 17  0  0  0  0  0  0  0  0999 V2000
    2.5006    1.2375    0.0000 Cl  0  0  0  0  0  0  0  2  0  0  0  0
    1.7862    0.8250    0.0000 C   0  0  0  0  0  0  0  2  0  0  0  0
    1.7862   -0.0000    0.0000 N   0  0  0  0  0  0  0  2  0  0  0  0
    1.0717   -0.4125    0.0000 C   0  0  0  0  0  0  0  2  0  0  0  0
    1.0717   -1.2375    0.0000 Cl  0  0  0  0  0  0  0  2  0  0  0  0
    0.3572   -0.0000    0.0000 N   0  0  0  0  0  0  0  2  0  0  0  0
    0.3572    0.8250    0.0000 C   0  0  0  0  0  0  0  2  0  0  0  0
   -0.3572    1.2375    0.0000 N   0  0  0  0  0  0  0  2  0  0  0  0
   -1.0717    0.8250    0.0000 C   0  0  0  0  0  0  0  2  0  0  0  0
   -1.7862    1.2375    0.0000 C   0  0  0  0  0  0  0  2  0  0  0  0
   -2.5006    0.8250    0.0000 C   0  0  0  0  0  0  0  2  0  0  0  0
   -2.5006   -0.0000    0.0000 C   0  0  0  0  0  0  0  2  0  0  0  0
   -1.7862   -0.4125    0.0000 C   0  0  0  0  0  0  0  2  0  0  0  0
   -1.0717   -0.0000    0.0000 C   0  0  0  0  0  0  0  2  0  0  0  0
   -0.3572   -0.4125    0.0000 Cl  0  0  0  0  0  0  0  2  0  0  0  0
    1.0717    1.2375    0.0000 N   0  0  0  0  0  0  0  2  0  0  0  0
  1  2  1  0        0
  2  3  4  0        0
  3  4  4  0        0
  4  5  1  0        0
  4  6  4  0        0
  6  7  4  0        0
  7  8  1  0        0
  8  9  1  0        0
  9 10  4  0        0
 10 11  4  0        0
 11 12  4  0        0
 12 13  4  0        0
 13 14  4  0        0
  9 14  4  0        0
 14 15  1  0        0
  7 16  4  0        0
  2 16  4  0        0
M  END
>  <CAS RN>
101053

>  <SMILES>
Clc1nc(Cl)nc(Nc2ccccc2Cl)n1

>  <Measured or Estimated Log10(mmol/L)>
-3.144817791

$$$$

CDXL12

 14 15  0  0  0  0  0  0  0  0999 V2000
    0.3572    0.8250    0.0000 O   0  0  0  0  0  0  0  2  0  0  0  0
    1.0717    0.4125    0.0000 C   0  0  0  0  0  0  0  2  0  0  0  0
    1.7862    0.8250    0.0000 C   0  0  0  0  0  0  0  2  0  0  0  0
    2.5006    0.4125    0.0000 C   0  0  0  0  0  0  0  2  0  0  0  0
    2.5006   -0.4125    0.0000 C   0  0  0  0  0  0  0  2  0  0  0  0
    1.7862   -0.8250    0.0000 C   0  0  0  0  0  0  0  2  0  0  0  0
    1.0717   -0.4125    0.0000 C   0  0  0  0  0  0  0  2  0  0  0  0
   -0.3572    0.4125    0.0000 C   0  0  0  0  0  0  0  2  0  0  0  0
   -0.3572   -0.4125    0.0000 C   0  0  0  0  0  0  0  2  0  0  0  0
   -1.0717   -0.8250    0.0000 C   0  0  0  0  0  0  0  2  0  0  0  0
   -1.7862   -0.4125    0.0000 C   0  0  0  0  0  0  0  2  0  0  0  0
   -2.5006   -0.8250    0.0000 Br  0  0  0  0  0  0  0  2  0  0  0  0
   -1.7862    0.4125    0.0000 C   0  0  0  0  0  0  0  2  0  0  0  0
   -1.0717    0.8250    0.0000 C   0  0  0  0  0  0  0  2  0  0  0  0
  1  2  1  0        0
  2  3  4  0        0
  3  4  4  0        0
  4  5  4  0        0
  5  6  4  0        0
  6  7  4  0        0
  2  7  4  0        0
  1  8  1  0        0
  8  9  4  0        0
  9 10  4  0        0
 10 11  4  0        0
 11 12  1  0        0
 11 13  4  0        0
 13 14  4  0        0
  8 14  4  0        0
M  END
>  <CAS RN>
101553

>  <SMILES>
O(c1ccccc1)c1ccc(Br)cc1

>  <Measured or Estimated Log10(mmol/L)>
-2.840092148

$$$$

CDXL12

 13 14  0  0  0  0  0  0  0  0999 V2000
   -0.7145    0.4125    0.0000 C   0  0  0  0  0  0  0  2  0  0  0  0
   -0.7145   -0.4125    0.0000 C   0  0  0  0  0  0  0  2  0  0  0  0
   -1.4289   -0.8250    0.0000 C   0  0  0  0  0  0  0  2  0  0  0  0
   -2.1434   -0.4125    0.0000 C   0  0  0  0  0  0  0  2  0  0  0  0
   -2.1434    0.4125    0.0000 C   0  0  0  0  0  0  0  2  0  0  0  0
   -1.4289    0.8250    0.0000 C   0  0  0  0  0  0  0  2  0  0  0  0
    0.0000    0.8250    0.0000 C   0  0  0  0  0  0  0  2  0  0  0  0
    0.7145    0.4125    0.0000 C   0  0  0  0  0  0  0  2  0  0  0  0
    1.4289    0.8250    0.0000 C   0  0  0  0  0  0  0  2  0  0  0  0
    2.1434    0.4125    0.0000 C   0  0  0  0  0  0  0  2  0  0  0  0
    2.1434   -0.4125    0.0000 C   0  0  0  0  0  0  0  2  0  0  0  0
    1.4289   -0.8250    0.0000 C   0  0  0  0  0  0  0  2  0  0  0  0
    0.7145   -0.4125    0.0000 C   0  0  0  0  0  0  0  2  0  0  0  0
  1  2  4  0        0
  2  3  4  0        0
  3  4  4  0        0
  4  5  4  0        0
  5  6  4  0        0
  1  6  4  0        0
  1  7  1  0        0
  7  8  1  0        0
  8  9  4  0        0
  9 10  4  0        0
 10 11  4  0        0
 11 12  4  0        0
 12 13  4  0        0
  8 13  4  0        0
M  END
>  <CAS RN>
101815

>  <SMILES>
c1(ccccc1)Cc1ccccc1

>  <Measured or Estimated Log10(mmol/L)>
-1.5178458

$$$$

CDXL12

 13 14  0  0  0  0  0  0  0  0999 V2000
    0.0000    0.8250    0.0000 O   0  0  0  0  0  0  0  2  0  0  0  0
   -0.7145    0.4125    0.0000 C   0  0  0  0  0  0  0  2  0  0  0  0
   -0.7145   -0.4125    0.0000 C   0  0  0  0  0  0  0  2  0  0  0  0
   -1.4289   -0.8250    0.0000 C   0  0  0  0  0  0  0  2  0  0  0  0
   -2.1434   -0.4125    0.0000 C   0  0  0  0  0  0  0  2  0  0  0  0
   -2.1434    0.4125    0.0000 C   0  0  0  0  0  0  0  2  0  0  0  0
   -1.4289    0.8250    0.0000 C   0  0  0  0  0  0  0  2  0  0  0  0
    0.7145    0.4125    0.0000 C   0  0  0  0  0  0  0  2  0  0  0  0
    1.4289    0.8250    0.0000 C   0  0  0  0  0  0  0  2  0  0  0  0
    2.1434    0.4125    0.0000 C   0  0  0  0  0  0  0  2  0  0  0  0
    2.1434   -0.4125    0.0000 C   0  0  0  0  0  0  0  2  0  0  0  0
    1.4289   -0.8250    0.0000 C   0  0  0  0  0  0  0  2  0  0  0  0
    0.7145   -0.4125    0.0000 C   0  0  0  0  0  0  0  2  0  0  0  0
  1  2  1  0        0
  2  3  4  0        0
  3  4  4  0        0
  4  5  4  0        0
  5  6  4  0        0
  6  7  4  0        0
  2  7  4  0        0
  1  8  1  0        0
  8  9  4  0        0
  9 10  4  0        0
 10 11  4  0        0
 11 12  4  0        0
 12 13  4  0        0
  8 13  4  0        0
M  END
>  <CAS RN>
101848

>  <SMILES>
O(c1ccccc1)c1ccccc1

>  <Measured or Estimated Log10(mmol/L)>
-2.404912821

$$$$

CDXL12

 10  9  0  0  0  0  0  0  0  0999 V2000
   -2.1434   -1.2375    0.0000 O   0  0  0  0  0  0  0  2  0  0  0  0
   -1.4289   -0.8250    0.0000 C   0  0  0  0  0  0  0  2  0  0  0  0
   -0.7145   -1.2375    0.0000 C   0  0  0  0  0  0  0  2  0  0  0  0
    0.0000   -0.8250    0.0000 N   0  0  0  0  0  0  0  2  0  0  0  0
    0.7145   -1.2375    0.0000 C   0  0  0  0  0  0  0  2  0  0  0  0
    1.4289   -0.8250    0.0000 C   0  0  0  0  0  0  0  2  0  0  0  0
    2.1434   -1.2375    0.0000 O   0  0  0  0  0  0  0  2  0  0  0  0
    0.0000    0.0000    0.0000 C   0  0  0  0  0  0  0  2  0  0  0  0
   -0.7145    0.4125    0.0000 C   0  0  0  0  0  0  0  2  0  0  0  0
   -0.7145    1.2375    0.0000 O   0  0  0  0  0  0  0  2  0  0  0  0
  1  2  1  0        0
  2  3  1  0        0
  3  4  1  0        0
  4  5  1  0        0
  5  6  1  0        0
  6  7  1  0        0
  4  8  1  0        0
  8  9  1  0        0
  9 10  1  0        0
M  END
>  <CAS RN>
102716

>  <SMILES>
OCCN(CCO)CCO

>  <Measured or Estimated Log10(mmol/L)>
0.7102207

$$$$

CDXL12

 26 25  0  0  0  0  0  0  0  0999 V2000
   -1.7862    1.0312    0.0000 O   0  0  0  0  0  0  0  2  0  0  0  0
   -1.7862    0.2062    0.0000 C   0  0  0  0  0  0  0  2  0  0  0  0
   -2.5006   -0.2062    0.0000 O   0  0  0  0  0  0  0  2  0  0  0  0
   -3.2151    0.2063    0.0000 C   0  0  0  0  0  0  0  2  0  0  0  0
   -3.9296   -0.2062    0.0000 C   0  0  0  0  0  0  0  2  0  0  0  0
   -4.6441    0.2062    0.0000 C   0  0  0  0  0  0  0  2  0  0  0  0
   -5.3585   -0.2062    0.0000 C   0  0  0  0  0  0  0  2  0  0  0  0
   -6.0730    0.2062    0.0000 C   0  0  0  0  0  0  0  2  0  0  0  0
   -6.7875   -0.2062    0.0000 C   0  0  0  0  0  0  0  2  0  0  0  0
   -3.9296   -1.0312    0.0000 C   0  0  0  0  0  0  0  2  0  0  0  0
   -4.6441   -1.4437    0.0000 C   0  0  0  0  0  0  0  2  0  0  0  0
   -1.0717   -0.2062    0.0000 C   0  0  0  0  0  0  0  2  0  0  0  0
   -0.3572    0.2062    0.0000 C   0  0  0  0  0  0  0  2  0  0  0  0
    0.3572   -0.2062    0.0000 C   0  0  0  0  0  0  0  2  0  0  0  0
    1.0717    0.2062    0.0000 C   0  0  0  0  0  0  0  2  0  0  0  0
    1.7862   -0.2062    0.0000 C   0  0  0  0  0  0  0  2  0  0  0  0
    1.7862   -1.0312    0.0000 O   0  0  0  0  0  0  0  2  0  0  0  0
    2.5006    0.2062    0.0000 O   0  0  0  0  0  0  0  2  0  0  0  0
    3.2151   -0.2062    0.0000 C   0  0  0  0  0  0  0  2  0  0  0  0
    3.9296    0.2062    0.0000 C   0  0  0  0  0  0  0  2  0  0  0  0
    4.6441   -0.2062    0.0000 C   0  0  0  0  0  0  0  2  0  0  0  0
    5.3585    0.2062    0.0000 C   0  0  0  0  0  0  0  2  0  0  0  0
    6.0730   -0.2062    0.0000 C   0  0  0  0  0  0  0  2  0  0  0  0
    6.7875    0.2062    0.0000 C   0  0  0  0  0  0  0  2  0  0  0  0
    3.9296    1.0312    0.0000 C   0  0  0  0  0  0  0  2  0  0  0  0
    4.6441    1.4437    0.0000 C   0  0  0  0  0  0  0  2  0  0  0  0
  1  2  2  0        0
  2  3  1  0        0
  3  4  1  0        0
  4  5  1  0        0
  5  6  1  0        0
  6  7  1  0        0
  7  8  1  0        0
  8  9  1  0        0
  5 10  1  0        0
 10 11  1  0        0
  2 12  1  0        0
 12 13  1  0        0
 13 14  1  0        0
 14 15  1  0        0
 15 16  1  0        0
 16 17  2  0        0
 16 18  1  0        0
 18 19  1  0        0
 19 20  1  0        0
 20 21  1  0        0
 21 22  1  0        0
 22 23  1  0        0
 23 24  1  0        0
 20 25  1  0        0
 25 26  1  0        0
M  END
>  <CAS RN>
103231

>  <SMILES>
O=C(OCC(CCCC)CC)CCCCC(=O)OCC(CCCC)CC

>  <Measured or Estimated Log10(mmol/L)>
-2.74933101

$$$$

CDXL12

 14 15  0  0  0  0  0  0  0  0999 V2000
    0.3572   -0.2063    0.0000 N   0  0  0  0  0  0  0  2  0  0  0  0
   -0.3572    0.2062    0.0000 N   0  0  0  0  0  0  0  2  0  0  0  0
   -1.0717   -0.2063    0.0000 C   0  0  0  0  0  0  0  2  0  0  0  0
   -1.0717   -1.0313    0.0000 C   0  0  0  0  0  0  0  2  0  0  0  0
   -1.7862   -1.4437    0.0000 C   0  0  0  0  0  0  0  2  0  0  0  0
   -2.5006   -1.0313    0.0000 C   0  0  0  0  0  0  0  2  0  0  0  0
   -2.5006   -0.2063    0.0000 C   0  0  0  0  0  0  0  2  0  0  0  0
   -1.7862    0.2062    0.0000 C   0  0  0  0  0  0  0  2  0  0  0  0
    1.0717    0.2062    0.0000 C   0  0  0  0  0  0  0  2  0  0  0  0
    1.0717    1.0312    0.0000 C   0  0  0  0  0  0  0  2  0  0  0  0
    1.7862    1.4437    0.0000 C   0  0  0  0  0  0  0  2  0  0  0  0
    2.5006    1.0312    0.0000 C   0  0  0  0  0  0  0  2  0  0  0  0
    2.5006    0.2062    0.0000 C   0  0  0  0  0  0  0  2  0  0  0  0
    1.7862   -0.2063    0.0000 C   0  0  0  0  0  0  0  2  0  0  0  0
  1  2  2  0        0
  2  3  1  0        0
  3  4  4  0        0
  4  5  4  0        0
  5  6  4  0        0
  6  7  4  0        0
  7  8  4  0        0
  3  8  4  0        0
  1  9  1  0        0
  9 10  4  0        0
 10 11  4  0        0
 11 12  4  0        0
 12 13  4  0        0
 13 14  4  0        0
  9 14  4  0        0
M  END
>  <CAS RN>
103333

>  <SMILES>
N(=Nc1ccccc1)c1ccccc1

>  <Measured or Estimated Log10(mmol/L)>
-1.913343489

$$$$

CDXL12

  9  9  0  0  0  0  0  0  0  0999 V2000
   -0.3572   -0.4125    0.0000 C   0  0  0  0  0  0  0  2  0  0  0  0
   -1.0717   -0.8250    0.0000 C   0  0  0  0  0  0  0  2  0  0  0  0
   -1.7862   -0.4125    0.0000 C   0  0  0  0  0  0  0  2  0  0  0  0
   -1.7862    0.4125    0.0000 C   0  0  0  0  0  0  0  2  0  0  0  0
   -1.0717    0.8250    0.0000 C   0  0  0  0  0  0  0  2  0  0  0  0
   -0.3572    0.4125    0.0000 C   0  0  0  0  0  0  0  2  0  0  0  0
    0.3572   -0.8250    0.0000 C   0  0  0  0  0  0  0  2  0  0  0  0
    1.0717   -0.4125    0.0000 C   0  0  0  0  0  0  0  2  0  0  0  0
    1.7862   -0.8250    0.0000 C   0  0  0  0  0  0  0  2  0  0  0  0
  1  2  4  0        0
  2  3  4  0        0
  3  4  4  0        0
  4  5  4  0        0
  5  6  4  0        0
  1  6  4  0        0
  1  7  1  0        0
  7  8  1  0        0
  8  9  1  0        0
M  END
>  <CAS RN>
103651

>  <SMILES>
c1(ccccc1)CCC

>  <Measured or Estimated Log10(mmol/L)>
-2.1396318

$$$$

CDXL12

  9  9  0  0  0  0  0  0  0  0999 V2000
    0.3572   -0.8250    0.0000 N   0  0  0  0  0  0  0  2  0  0  0  0
   -0.3572   -0.4125    0.0000 C   0  0  0  0  0  0  0  2  0  0  0  0
   -1.0717   -0.8250    0.0000 C   0  0  0  0  0  0  0  2  0  0  0  0
   -1.7862   -0.4125    0.0000 C   0  0  0  0  0  0  0  2  0  0  0  0
   -1.7862    0.4125    0.0000 C   0  0  0  0  0  0  0  2  0  0  0  0
   -1.0717    0.8250    0.0000 C   0  0  0  0  0  0  0  2  0  0  0  0
   -0.3572    0.4125    0.0000 C   0  0  0  0  0  0  0  2  0  0  0  0
    1.0717   -0.4125    0.0000 C   0  0  0  0  0  0  0  2  0  0  0  0
    1.7862   -0.8250    0.0000 C   0  0  0  0  0  0  0  2  0  0  0  0
  1  2  1  0        0
  2  3  4  0        0
  3  4  4  0        0
  4  5  4  0        0
  5  6  4  0        0
  6  7  4  0        0
  2  7  4  0        0
  1  8  1  0        0
  8  9  1  0        0
M  END
>  <CAS RN>
103695

>  <SMILES>
N(c1ccccc1)CC

>  <Measured or Estimated Log10(mmol/L)>
-2.460192409

$$$$

CDXL12

  9  9  0  0  0  0  0  0  0  0999 V2000
    0.3572   -0.8250    0.0000 N   0  0  0  0  0  0  0  2  0  0  0  0
   -0.3572   -0.4125    0.0000 C   0  0  0  0  0  0  0  2  0  0  0  0
   -1.0717   -0.8250    0.0000 C   0  0  0  0  0  0  0  2  0  0  0  0
   -1.7862   -0.4125    0.0000 C   0  0  0  0  0  0  0  2  0  0  0  0
   -1.7862    0.4125    0.0000 C   0  0  0  0  0  0  0  2  0  0  0  0
   -1.0717    0.8250    0.0000 C   0  0  0  0  0  0  0  2  0  0  0  0
   -0.3572    0.4125    0.0000 C   0  0  0  0  0  0  0  2  0  0  0  0
    1.0717   -0.4125    0.0000 C   0  0  0  0  0  0  0  2  0  0  0  0
    1.7862    0.0000    0.0000 S   0  0  0  0  0  0  0  2  0  0  0  0
  1  2  1  0        0
  2  3  4  0        0
  3  4  4  0        0
  4  5  4  0        0
  5  6  4  0        0
  6  7  4  0        0
  2  7  4  0        0
  1  8  2  0        0
  8  9  2  0        0
M  END
>  <CAS RN>
103720

>  <SMILES>
N(c1ccccc1)=C=S

>  <Measured or Estimated Log10(mmol/L)>
-3.130938143

$$$$

CDXL12

  9  9  0  0  0  0  0  0  0  0999 V2000
   -0.3572    0.4125    0.0000 N   0  0  0  0  0  0  0  2  0  0  0  0
   -0.3572   -0.4125    0.0000 C   0  0  0  0  0  0  0  2  0  0  0  0
   -1.0717   -0.8250    0.0000 C   0  0  0  0  0  0  0  2  0  0  0  0
   -1.7862   -0.4125    0.0000 C   0  0  0  0  0  0  0  2  0  0  0  0
   -1.7862    0.4125    0.0000 C   0  0  0  0  0  0  0  2  0  0  0  0
   -1.0717    0.8250    0.0000 C   0  0  0  0  0  0  0  2  0  0  0  0
    0.3572   -0.8250    0.0000 C   0  0  0  0  0  0  0  2  0  0  0  0
    1.0717   -0.4125    0.0000 C   0  0  0  0  0  0  0  2  0  0  0  0
    1.7862   -0.8250    0.0000 O   0  0  0  0  0  0  0  2  0  0  0  0
  1  2  4  0        0
  2  3  4  0        0
  3  4  4  0        0
  4  5  4  0        0
  5  6  4  0        0
  1  6  4  0        0
  2  7  1  0        0
  7  8  1  0        0
  8  9  1  0        0
M  END
>  <CAS RN>
103742

>  <SMILES>
n1c(cccc1)CCO

>  <Measured or Estimated Log10(mmol/L)>
-0.95

$$$$

CDXL12

 10 10  0  0  0  0  0  0  0  0999 V2000
    1.7862   -0.8250    0.0000 N   0  0  0  0  0  0  0  2  0  0  0  0
    1.0717   -0.4125    0.0000 C   0  0  0  0  0  0  0  2  0  0  0  0
    1.0717    0.4125    0.0000 S   0  0  0  0  0  0  0  2  0  0  0  0
    0.3572   -0.8250    0.0000 N   0  0  0  0  0  0  0  2  0  0  0  0
   -0.3572   -0.4125    0.0000 C   0  0  0  0  0  0  0  2  0  0  0  0
   -0.3572    0.4125    0.0000 C   0  0  0  0  0  0  0  2  0  0  0  0
   -1.0717    0.8250    0.0000 C   0  0  0  0  0  0  0  2  0  0  0  0
   -1.7862    0.4125    0.0000 C   0  0  0  0  0  0  0  2  0  0  0  0
   -1.7862   -0.4125    0.0000 C   0  0  0  0  0  0  0  2  0  0  0  0
   -1.0717   -0.8250    0.0000 C   0  0  0  0  0  0  0  2  0  0  0  0
  1  2  1  0        0
  2  3  2  0        0
  2  4  1  0        0
  4  5  1  0        0
  5  6  4  0        0
  6  7  4  0        0
  7  8  4  0        0
  8  9  4  0        0
  9 10  4  0        0
  5 10  4  0        0
M  END
>  <CAS RN>
103855

>  <SMILES>
NC(=S)Nc1ccccc1

>  <Measured or Estimated Log10(mmol/L)>
-0.411616853

$$$$

CDXL12

 16 16  0  0  0  0  0  0  0  0999 V2000
    4.2868    0.8250    0.0000 O   0  0  0  0  0  0  0  2  0  0  0  0
    3.5724    0.4125    0.0000 C   0  0  0  0  0  0  0  2  0  0  0  0
    3.5724   -0.4125    0.0000 C   0  0  0  0  0  0  0  2  0  0  0  0
    2.8579   -0.8250    0.0000 C   0  0  0  0  0  0  0  2  0  0  0  0
    2.1434   -0.4125    0.0000 C   0  0  0  0  0  0  0  2  0  0  0  0
    2.1434    0.4125    0.0000 C   0  0  0  0  0  0  0  2  0  0  0  0
    2.8579    0.8250    0.0000 C   0  0  0  0  0  0  0  2  0  0  0  0
    1.4289   -0.8250    0.0000 C   0  0  0  0  0  0  0  2  0  0  0  0
    0.7145   -0.4125    0.0000 C   0  0  0  0  0  0  0  2  0  0  0  0
    0.0000   -0.8250    0.0000 C   0  0  0  0  0  0  0  2  0  0  0  0
   -0.7145   -0.4125    0.0000 C   0  0  0  0  0  0  0  2  0  0  0  0
   -1.4289   -0.8250    0.0000 C   0  0  0  0  0  0  0  2  0  0  0  0
   -2.1434   -0.4125    0.0000 C   0  0  0  0  0  0  0  2  0  0  0  0
   -2.8579   -0.8250    0.0000 C   0  0  0  0  0  0  0  2  0  0  0  0
   -3.5724   -0.4125    0.0000 C   0  0  0  0  0  0  0  2  0  0  0  0
   -4.2868   -0.8250    0.0000 C   0  0  0  0  0  0  0  2  0  0  0  0
  1  2  1  0        0
  2  3  4  0        0
  3  4  4  0        0
  4  5  4  0        0
  5  6  4  0        0
  6  7  4  0        0
  2  7  4  0        0
  5  8  1  0        0
  8  9  1  0        0
  9 10  1  0        0
 10 11  1  0        0
 11 12  1  0        0
 12 13  1  0        0
 13 14  1  0        0
 14 15  1  0        0
 15 16  1  0        0
M  END
>  <CAS RN>
104405

>  <SMILES>
Oc1ccc(cc1)CCCCCCCCC

>  <Measured or Estimated Log10(mmol/L)>
-3.425594667

$$$$

CDXL12

 10 10  0  0  0  0  0  0  0  0999 V2000
    0.7145   -0.4125    0.0000 C   0  0  0  0  0  0  0  2  0  0  0  0
    0.7145    0.4125    0.0000 C   0  0  0  0  0  0  0  2  0  0  0  0
    1.4289    0.8250    0.0000 C   0  0  0  0  0  0  0  2  0  0  0  0
    2.1434    0.4125    0.0000 C   0  0  0  0  0  0  0  2  0  0  0  0
    2.1434   -0.4125    0.0000 C   0  0  0  0  0  0  0  2  0  0  0  0
    1.4289   -0.8250    0.0000 C   0  0  0  0  0  0  0  2  0  0  0  0
    0.0000   -0.8250    0.0000 C   0  0  0  0  0  0  0  2  0  0  0  0
   -0.7145   -0.4125    0.0000 C   0  0  0  0  0  0  0  2  0  0  0  0
   -1.4289   -0.8250    0.0000 C   0  0  0  0  0  0  0  2  0  0  0  0
   -2.1434   -0.4125    0.0000 C   0  0  0  0  0  0  0  2  0  0  0  0
  1  2  4  0        0
  2  3  4  0        0
  3  4  4  0        0
  4  5  4  0        0
  5  6  4  0        0
  1  6  4  0        0
  1  7  1  0        0
  7  8  1  0        0
  8  9  1  0        0
  9 10  1  0        0
M  END
>  <CAS RN>
104518

>  <SMILES>
c1(ccccc1)CCCC

>  <Measured or Estimated Log10(mmol/L)>
-2.7925071

$$$$

CDXL12

  9  9  0  0  0  0  0  0  0  0999 V2000
    1.0717   -0.8250    0.0000 O   0  0  0  0  0  0  0  2  0  0  0  0
    1.7862   -0.4125    0.0000 C   0  0  0  0  0  0  0  2  0  0  0  0
    0.3572   -0.4125    0.0000 C   0  0  0  0  0  0  0  2  0  0  0  0
   -0.3572   -0.8250    0.0000 C   0  0  0  0  0  0  0  2  0  0  0  0
   -1.0717   -0.4125    0.0000 C   0  0  0  0  0  0  0  2  0  0  0  0
   -1.0717    0.4125    0.0000 C   0  0  0  0  0  0  0  2  0  0  0  0
   -1.7862    0.8250    0.0000 N   0  0  0  0  0  0  0  2  0  0  0  0
   -0.3572    0.8250    0.0000 C   0  0  0  0  0  0  0  2  0  0  0  0
    0.3572    0.4125    0.0000 C   0  0  0  0  0  0  0  2  0  0  0  0
  1  2  1  0        0
  1  3  1  0        0
  3  4  4  0        0
  4  5  4  0        0
  5  6  4  0        0
  6  7  1  0        0
  6  8  4  0        0
  8  9  4  0        0
  3  9  4  0        0
M  END
>  <CAS RN>
104949

>  <SMILES>
O(C)c1ccc(N)cc1

>  <Measured or Estimated Log10(mmol/L)>
-0.683044926

$$$$

CDXL12

  7  6  0  0  0  0  0  0  0  0999 V2000
   -0.3572   -0.2062    0.0000 C   0  0  0  0  0  0  0  2  0  0  0  0
   -0.3572    0.6187    0.0000 O   0  0  0  0  0  0  0  2  0  0  0  0
   -1.0717   -0.6187    0.0000 C   0  0  0  0  0  0  0  2  0  0  0  0
   -1.7862   -0.2062    0.0000 C   0  0  0  0  0  0  0  2  0  0  0  0
    0.3572   -0.6187    0.0000 O   0  0  0  0  0  0  0  2  0  0  0  0
    1.0717   -0.2062    0.0000 C   0  0  0  0  0  0  0  2  0  0  0  0
    1.7862   -0.6187    0.0000 C   0  0  0  0  0  0  0  2  0  0  0  0
  1  2  2  0        0
  1  3  1  0        0
  3  4  1  0        0
  1  5  1  0        0
  5  6  1  0        0
  6  7  1  0        0
M  END
>  <CAS RN>
105373

>  <SMILES>
C(=O)(CC)OCC

>  <Measured or Estimated Log10(mmol/L)>
0.215281505

$$$$

CDXL12

  8  7  0  0  0  0  0  0  0  0999 V2000
    0.0000    0.6188    0.0000 O   0  0  0  0  0  0  0  2  0  0  0  0
    0.0000   -0.2062    0.0000 C   0  0  0  0  0  0  0  2  0  0  0  0
    0.7145   -0.6187    0.0000 O   0  0  0  0  0  0  0  2  0  0  0  0
    1.4289   -0.2062    0.0000 C   0  0  0  0  0  0  0  2  0  0  0  0
    2.1434   -0.6187    0.0000 C   0  0  0  0  0  0  0  2  0  0  0  0
   -0.7145   -0.6188    0.0000 C   0  0  0  0  0  0  0  2  0  0  0  0
   -1.4289   -0.2062    0.0000 C   0  0  0  0  0  0  0  2  0  0  0  0
   -2.1434   -0.6187    0.0000 C   0  0  0  0  0  0  0  2  0  0  0  0
  1  2  2  0        0
  2  3  1  0        0
  3  4  1  0        0
  4  5  1  0        0
  2  6  1  0        0
  6  7  1  0        0
  7  8  1  0        0
M  END
>  <CAS RN>
105544

>  <SMILES>
O=C(OCC)CCC

>  <Measured or Estimated Log10(mmol/L)>
0.5444111

$$$$

CDXL12

  8  7  0  0  0  0  0  0  0  0999 V2000
    0.7145   -0.6188    0.0000 N   0  0  0  0  0  0  0  2  0  0  0  0
    0.0000   -0.2062    0.0000 C   0  0  0  0  0  0  0  2  0  0  0  0
    0.0000    0.6188    0.0000 S   0  0  0  0  0  0  0  2  0  0  0  0
   -0.7145   -0.6187    0.0000 N   0  0  0  0  0  0  0  2  0  0  0  0
   -1.4289   -0.2062    0.0000 C   0  0  0  0  0  0  0  2  0  0  0  0
   -2.1434   -0.6187    0.0000 C   0  0  0  0  0  0  0  2  0  0  0  0
    1.4289   -0.2062    0.0000 C   0  0  0  0  0  0  0  2  0  0  0  0
    2.1434   -0.6188    0.0000 C   0  0  0  0  0  0  0  2  0  0  0  0
  1  2  1  0        0
  2  3  2  0        0
  2  4  1  0        0
  4  5  1  0        0
  5  6  1  0        0
  1  7  1  0        0
  7  8  1  0        0
M  END
>  <CAS RN>
105555

>  <SMILES>
N(C(=S)NCC)CC

>  <Measured or Estimated Log10(mmol/L)>
0.164230595

$$$$

CDXL12

  8  8  0  0  0  0  0  0  0  0999 V2000
    1.1576    0.9819    0.0000 O   0  0  0  0  0  0  0  2  0  0  0  0
    0.5126    0.4675    0.0000 C   0  0  0  0  0  0  0  2  0  0  0  0
    0.6962   -0.3368    0.0000 N   0  0  0  0  0  0  0  2  0  0  0  0
    0.1818   -0.9819    0.0000 C   0  0  0  0  0  0  0  2  0  0  0  0
   -0.6432   -0.9819    0.0000 C   0  0  0  0  0  0  0  2  0  0  0  0
   -1.1576   -0.3368    0.0000 C   0  0  0  0  0  0  0  2  0  0  0  0
   -0.9740    0.4675    0.0000 C   0  0  0  0  0  0  0  2  0  0  0  0
   -0.2307    0.8254    0.0000 C   0  0  0  0  0  0  0  2  0  0  0  0
  1  2  2  0        0
  2  3  1  0        0
  3  4  1  0        0
  4  5  1  0        0
  5  6  1  0        0
  6  7  1  0        0
  7  8  1  0        0
  2  8  1  0        0
M  END
>  <CAS RN>
105602

>  <SMILES>
O=C1NCCCCC1

>  <Measured or Estimated Log10(mmol/L)>
1.79

$$$$

CDXL12

  9  9  0  0  0  0  0  0  0  0999 V2000
    1.4289    0.8250    0.0000 O   0  0  0  0  0  0  0  2  0  0  0  0
    0.7145    0.4125    0.0000 C   0  0  0  0  0  0  0  2  0  0  0  0
    0.7145   -0.4125    0.0000 C   0  0  0  0  0  0  0  2  0  0  0  0
    0.0000   -0.8250    0.0000 C   0  0  0  0  0  0  0  2  0  0  0  0
   -0.7145   -0.4125    0.0000 C   0  0  0  0  0  0  0  2  0  0  0  0
   -0.7145    0.4125    0.0000 C   0  0  0  0  0  0  0  2  0  0  0  0
    0.0000    0.8250    0.0000 C   0  0  0  0  0  0  0  2  0  0  0  0
   -1.4289   -0.8250    0.0000 C   0  0  0  0  0  0  0  2  0  0  0  0
    1.4289   -0.8250    0.0000 C   0  0  0  0  0  0  0  2  0  0  0  0
  1  2  1  0        0
  2  3  4  0        0
  3  4  4  0        0
  4  5  4  0        0
  5  6  4  0        0
  6  7  4  0        0
  2  7  4  0        0
  5  8  1  0        0
  3  9  1  0        0
M  END
>  <CAS RN>
105679

>  <SMILES>
Oc1c(cc(cc1)C)C

>  <Measured or Estimated Log10(mmol/L)>
-1.764734615

$$$$

CDXL12

  8  8  0  0  0  0  0  0  0  0999 V2000
    0.7145    0.4125    0.0000 C   0  0  0  0  0  0  0  2  0  0  0  0
    0.7145   -0.4125    0.0000 C   0  0  0  0  0  0  0  2  0  0  0  0
    0.0000   -0.8250    0.0000 C   0  0  0  0  0  0  0  2  0  0  0  0
   -0.7145   -0.4125    0.0000 C   0  0  0  0  0  0  0  2  0  0  0  0
   -0.7145    0.4125    0.0000 C   0  0  0  0  0  0  0  2  0  0  0  0
    0.0000    0.8250    0.0000 C   0  0  0  0  0  0  0  2  0  0  0  0
   -1.4289   -0.8250    0.0000 Br  0  0  0  0  0  0  0  2  0  0  0  0
    1.4289    0.8250    0.0000 Cl  0  0  0  0  0  0  0  2  0  0  0  0
  1  2  4  0        0
  2  3  4  0        0
  3  4  4  0        0
  4  5  4  0        0
  5  6  4  0        0
  1  6  4  0        0
  4  7  1  0        0
  1  8  1  0        0
M  END
>  <CAS RN>
106398

>  <SMILES>
c1(ccc(cc1)Br)Cl

>  <Measured or Estimated Log10(mmol/L)>
-2.290851965

$$$$

CDXL12

  8  8  0  0  0  0  0  0  0  0999 V2000
    1.4289    0.8250    0.0000 N   0  0  0  0  0  0  0  2  0  0  0  0
    0.7145    0.4125    0.0000 C   0  0  0  0  0  0  0  2  0  0  0  0
    0.7145   -0.4125    0.0000 C   0  0  0  0  0  0  0  2  0  0  0  0
    0.0000   -0.8250    0.0000 C   0  0  0  0  0  0  0  2  0  0  0  0
   -0.7145   -0.4125    0.0000 C   0  0  0  0  0  0  0  2  0  0  0  0
   -0.7145    0.4125    0.0000 C   0  0  0  0  0  0  0  2  0  0  0  0
    0.0000    0.8250    0.0000 C   0  0  0  0  0  0  0  2  0  0  0  0
   -1.4289   -0.8250    0.0000 Br  0  0  0  0  0  0  0  2  0  0  0  0
  1  2  1  0        0
  2  3  4  0        0
  3  4  4  0        0
  4  5  4  0        0
  5  6  4  0        0
  6  7  4  0        0
  2  7  4  0        0
  5  8  1  0        0
M  END
>  <CAS RN>
106401

>  <SMILES>
Nc1ccc(cc1)Br

>  <Measured or Estimated Log10(mmol/L)>
-1.693099761

$$$$

CDXL12

  8  8  0  0  0  0  0  0  0  0999 V2000
    0.7145    0.4125    0.0000 C   0  0  0  0  0  0  0  2  0  0  0  0
    0.7145   -0.4125    0.0000 C   0  0  0  0  0  0  0  2  0  0  0  0
    0.0000   -0.8250    0.0000 C   0  0  0  0  0  0  0  2  0  0  0  0
   -0.7145   -0.4125    0.0000 C   0  0  0  0  0  0  0  2  0  0  0  0
   -0.7145    0.4125    0.0000 C   0  0  0  0  0  0  0  2  0  0  0  0
    0.0000    0.8250    0.0000 C   0  0  0  0  0  0  0  2  0  0  0  0
   -1.4289   -0.8250    0.0000 C   0  0  0  0  0  0  0  2  0  0  0  0
    1.4289    0.8250    0.0000 C   0  0  0  0  0  0  0  2  0  0  0  0
  1  2  4  0        0
  2  3  4  0        0
  3  4  4  0        0
  4  5  4  0        0
  5  6  4  0        0
  1  6  4  0        0
  4  7  1  0        0
  1  8  1  0        0
M  END
>  <CAS RN>
106423

>  <SMILES>
c1(ccc(cc1)C)C

>  <Measured or Estimated Log10(mmol/L)>
-0.515448626

$$$$

CDXL12

  8  8  0  0  0  0  0  0  0  0999 V2000
    0.7145    0.4125    0.0000 C   0  0  0  0  0  0  0  2  0  0  0  0
    0.7145   -0.4125    0.0000 C   0  0  0  0  0  0  0  2  0  0  0  0
    0.0000   -0.8250    0.0000 C   0  0  0  0  0  0  0  2  0  0  0  0
   -0.7145   -0.4125    0.0000 C   0  0  0  0  0  0  0  2  0  0  0  0
   -0.7145    0.4125    0.0000 C   0  0  0  0  0  0  0  2  0  0  0  0
    0.0000    0.8250    0.0000 C   0  0  0  0  0  0  0  2  0  0  0  0
   -1.4289   -0.8250    0.0000 Cl  0  0  0  0  0  0  0  2  0  0  0  0
    1.4289    0.8250    0.0000 C   0  0  0  0  0  0  0  2  0  0  0  0
  1  2  4  0        0
  2  3  4  0        0
  3  4  4  0        0
  4  5  4  0        0
  5  6  4  0        0
  1  6  4  0        0
  4  7  1  0        0
  1  8  1  0        0
M  END
>  <CAS RN>
106434

>  <SMILES>
c1(ccc(cc1)Cl)C

>  <Measured or Estimated Log10(mmol/L)>
-2.06133408

$$$$

CDXL12

  8  8  0  0  0  0  0  0  0  0999 V2000
    1.4289    0.8250    0.0000 O   0  0  0  0  0  0  0  2  0  0  0  0
    0.7145    0.4125    0.0000 C   0  0  0  0  0  0  0  2  0  0  0  0
    0.7145   -0.4125    0.0000 C   0  0  0  0  0  0  0  2  0  0  0  0
    0.0000   -0.8250    0.0000 C   0  0  0  0  0  0  0  2  0  0  0  0
   -0.7145   -0.4125    0.0000 C   0  0  0  0  0  0  0  2  0  0  0  0
   -0.7145    0.4125    0.0000 C   0  0  0  0  0  0  0  2  0  0  0  0
    0.0000    0.8250    0.0000 C   0  0  0  0  0  0  0  2  0  0  0  0
   -1.4289   -0.8250    0.0000 C   0  0  0  0  0  0  0  2  0  0  0  0
  1  2  1  0        0
  2  3  4  0        0
  3  4  4  0        0
  4  5  4  0        0
  5  6  4  0        0
  6  7  4  0        0
  2  7  4  0        0
  5  8  1  0        0
M  END
>  <CAS RN>
106445

>  <SMILES>
Oc1ccc(cc1)C

>  <Measured or Estimated Log10(mmol/L)>
-1.88785833

$$$$

CDXL12

  8  8  0  0  0  0  0  0  0  0999 V2000
    0.7145    0.4125    0.0000 C   0  0  0  0  0  0  0  2  0  0  0  0
    0.7145   -0.4125    0.0000 C   0  0  0  0  0  0  0  2  0  0  0  0
    0.0000   -0.8250    0.0000 C   0  0  0  0  0  0  0  2  0  0  0  0
   -0.7145   -0.4125    0.0000 C   0  0  0  0  0  0  0  2  0  0  0  0
   -0.7145    0.4125    0.0000 C   0  0  0  0  0  0  0  2  0  0  0  0
    0.0000    0.8250    0.0000 C   0  0  0  0  0  0  0  2  0  0  0  0
   -1.4289   -0.8250    0.0000 Cl  0  0  0  0  0  0  0  2  0  0  0  0
    1.4289    0.8250    0.0000 Cl  0  0  0  0  0  0  0  2  0  0  0  0
  1  2  4  0        0
  2  3  4  0        0
  3  4  4  0        0
  4  5  4  0        0
  5  6  4  0        0
  1  6  4  0        0
  4  7  1  0        0
  1  8  1  0        0
M  END
>  <CAS RN>
106467

>  <SMILES>
c1(ccc(cc1)Cl)Cl

>  <Measured or Estimated Log10(mmol/L)>
-1.146139853

$$$$

CDXL12

  8  8  0  0  0  0  0  0  0  0999 V2000
    1.4289    0.8250    0.0000 N   0  0  0  0  0  0  0  2  0  0  0  0
    0.7145    0.4125    0.0000 C   0  0  0  0  0  0  0  2  0  0  0  0
    0.7145   -0.4125    0.0000 C   0  0  0  0  0  0  0  2  0  0  0  0
    0.0000   -0.8250    0.0000 C   0  0  0  0  0  0  0  2  0  0  0  0
   -0.7145   -0.4125    0.0000 C   0  0  0  0  0  0  0  2  0  0  0  0
   -0.7145    0.4125    0.0000 C   0  0  0  0  0  0  0  2  0  0  0  0
    0.0000    0.8250    0.0000 C   0  0  0  0  0  0  0  2  0  0  0  0
   -1.4289   -0.8250    0.0000 Cl  0  0  0  0  0  0  0  2  0  0  0  0
  1  2  1  0        0
  2  3  4  0        0
  3  4  4  0        0
  4  5  4  0        0
  5  6  4  0        0
  6  7  4  0        0
  2  7  4  0        0
  5  8  1  0        0
M  END
>  <CAS RN>
106478

>  <SMILES>
Nc1ccc(cc1)Cl

>  <Measured or Estimated Log10(mmol/L)>
-1.322831751

$$$$

CDXL12

  8  8  0  0  0  0  0  0  0  0999 V2000
    1.4289    0.8250    0.0000 O   0  0  0  0  0  0  0  2  0  0  0  0
    0.7145    0.4125    0.0000 C   0  0  0  0  0  0  0  2  0  0  0  0
    0.7145   -0.4125    0.0000 C   0  0  0  0  0  0  0  2  0  0  0  0
    0.0000   -0.8250    0.0000 C   0  0  0  0  0  0  0  2  0  0  0  0
   -0.7145   -0.4125    0.0000 C   0  0  0  0  0  0  0  2  0  0  0  0
   -0.7145    0.4125    0.0000 C   0  0  0  0  0  0  0  2  0  0  0  0
    0.0000    0.8250    0.0000 C   0  0  0  0  0  0  0  2  0  0  0  0
   -1.4289   -0.8250    0.0000 Cl  0  0  0  0  0  0  0  2  0  0  0  0
  1  2  1  0        0
  2  3  4  0        0
  3  4  4  0        0
  4  5  4  0        0
  5  6  4  0        0
  6  7  4  0        0
  2  7  4  0        0
  5  8  1  0        0
M  END
>  <CAS RN>
106489

>  <SMILES>
Oc1ccc(cc1)Cl

>  <Measured or Estimated Log10(mmol/L)>
-1.426052069

$$$$

CDXL12

  5  5  0  0  0  0  0  0  0  0999 V2000
   -0.7145    0.5635    0.0000 O   0  0  0  0  0  0  0  2  0  0  0  0
   -0.3020   -0.1510    0.0000 C   0  0  0  0  0  0  0  2  0  0  0  0
    0.4125   -0.5635    0.0000 C   0  0  0  0  0  0  0  2  0  0  0  0
    1.1270   -0.1510    0.0000 Cl  0  0  0  0  0  0  0  2  0  0  0  0
   -1.1270   -0.1510    0.0000 C   0  0  0  0  0  0  0  2  0  0  0  0
  1  2  1  0        0
  2  3  1  0        0
  3  4  1  0        0
  2  5  1  0        0
  1  5  1  0        0
M  END
>  <CAS RN>
106898

>  <SMILES>
O1C(CCl)C1

>  <Measured or Estimated Log10(mmol/L)>
-0.587861193

$$$$

CDXL12

  4  3  0  0  0  0  0  0  0  0999 V2000
   -1.0717    0.2062    0.0000 O   0  0  0  0  0  0  0  2  0  0  0  0
   -0.3572   -0.2062    0.0000 C   0  0  0  0  0  0  0  2  0  0  0  0
    0.3572    0.2062    0.0000 C   0  0  0  0  0  0  0  2  0  0  0  0
    1.0717   -0.2062    0.0000 C   0  0  0  0  0  0  0  2  0  0  0  0
  1  2  2  0        0
  2  3  1  0        0
  3  4  2  0        0
M  END
>  <CAS RN>
107028

>  <SMILES>
O=CC=C

>  <Measured or Estimated Log10(mmol/L)>
-2.992809224

$$$$

CDXL12

  4  3  0  0  0  0  0  0  0  0999 V2000
   -1.0717    0.2062    0.0000 C   0  0  0  0  0  0  0  2  0  0  0  0
   -0.3572   -0.2062    0.0000 C   0  0  0  0  0  0  0  2  0  0  0  0
    0.3572    0.2062    0.0000 C   0  0  0  0  0  0  0  2  0  0  0  0
    1.0717   -0.2062    0.0000 S   0  0  0  0  0  0  0  2  0  0  0  0
  1  2  1  0        0
  2  3  1  0        0
  3  4  1  0        0
M  END
>  <CAS RN>
107039

>  <SMILES>
CCCS

>  <Measured or Estimated Log10(mmol/L)>
-3.103581387

$$$$

CDXL12

  4  3  0  0  0  0  0  0  0  0999 V2000
   -1.0717    0.2062    0.0000 Cl  0  0  0  0  0  0  0  2  0  0  0  0
   -0.3572   -0.2062    0.0000 C   0  0  0  0  0  0  0  2  0  0  0  0
    0.3572    0.2062    0.0000 C   0  0  0  0  0  0  0  2  0  0  0  0
    1.0717   -0.2062    0.0000 Cl  0  0  0  0  0  0  0  2  0  0  0  0
  1  2  1  0        0
  2  3  1  0        0
  3  4  1  0        0
M  END
>  <CAS RN>
107062

>  <SMILES>
ClCCCl

>  <Measured or Estimated Log10(mmol/L)>
0.509690292

$$$$

CDXL12

  4  3  0  0  0  0  0  0  0  0999 V2000
   -1.0717    0.2062    0.0000 O   0  0  0  0  0  0  0  2  0  0  0  0
   -0.3572   -0.2062    0.0000 C   0  0  0  0  0  0  0  2  0  0  0  0
    0.3572    0.2062    0.0000 C   0  0  0  0  0  0  0  2  0  0  0  0
    1.0717   -0.2062    0.0000 Cl  0  0  0  0  0  0  0  2  0  0  0  0
  1  2  1  0        0
  2  3  1  0        0
  3  4  1  0        0
M  END
>  <CAS RN>
107073

>  <SMILES>
OCCCl

>  <Measured or Estimated Log10(mmol/L)>
0.370590401

$$$$

CDXL12

  4  3  0  0  0  0  0  0  0  0999 V2000
   -1.0717    0.2062    0.0000 N   0  0  0  0  0  0  0  2  0  0  0  0
   -0.3572   -0.2062    0.0000 C   0  0  0  0  0  0  0  2  0  0  0  0
    0.3572    0.2062    0.0000 C   0  0  0  0  0  0  0  2  0  0  0  0
    1.0717   -0.2062    0.0000 C   0  0  0  0  0  0  0  2  0  0  0  0
  1  2  1  0        0
  2  3  1  0        0
  3  4  2  0        0
M  END
>  <CAS RN>
107119

>  <SMILES>
NCC=C

>  <Measured or Estimated Log10(mmol/L)>
-0.152739531

$$$$

CDXL12

  4  3  0  0  0  0  0  0  0  0999 V2000
    1.0717   -0.4125    0.0000 N   0  0  0  0  0  0  0  2  0  0  0  0
    0.3572   -0.0000    0.0000 C   0  0  0  0  0  0  0  2  0  0  0  0
   -0.3572    0.4125    0.0000 C   0  0  0  0  0  0  0  2  0  0  0  0
   -1.0717    0.0000    0.0000 C   0  0  0  0  0  0  0  2  0  0  0  0
  1  2  3  0        0
  2  3  1  0        0
  3  4  2  0        0
M  END
>  <CAS RN>
107131

>  <SMILES>
N#CC=C

>  <Measured or Estimated Log10(mmol/L)>
-0.843986392

$$$$

CDXL12

  4  3  0  0  0  0  0  0  0  0999 V2000
   -1.0717    0.2062    0.0000 N   0  0  0  0  0  0  0  2  0  0  0  0
   -0.3572   -0.2062    0.0000 C   0  0  0  0  0  0  0  2  0  0  0  0
    0.3572    0.2062    0.0000 C   0  0  0  0  0  0  0  2  0  0  0  0
    1.0717   -0.2062    0.0000 N   0  0  0  0  0  0  0  2  0  0  0  0
  1  2  1  0        0
  2  3  1  0        0
  3  4  1  0        0
M  END
>  <CAS RN>
107153

>  <SMILES>
NCCN

>  <Measured or Estimated Log10(mmol/L)>
-0.355628598

$$$$

CDXL12

  4  3  0  0  0  0  0  0  0  0999 V2000
   -1.0717    0.2062    0.0000 O   0  0  0  0  0  0  0  2  0  0  0  0
   -0.3572   -0.2062    0.0000 C   0  0  0  0  0  0  0  2  0  0  0  0
    0.3572    0.2062    0.0000 C   0  0  0  0  0  0  0  2  0  0  0  0
    1.0717   -0.2062    0.0000 C   0  0  0  0  0  0  0  2  0  0  0  0
  1  2  1  0        0
  2  3  1  0        0
  3  4  2  0        0
M  END
>  <CAS RN>
107186

>  <SMILES>
OCC=C

>  <Measured or Estimated Log10(mmol/L)>
-2.071088802

$$$$

CDXL12

  4  3  0  0  0  0  0  0  0  0999 V2000
   -1.0717   -0.0000    0.0000 O   0  0  0  0  0  0  0  2  0  0  0  0
   -0.3572   -0.4125    0.0000 C   0  0  0  0  0  0  0  2  0  0  0  0
    0.3572    0.0000    0.0000 C   0  0  0  0  0  0  0  2  0  0  0  0
    1.0717    0.4125    0.0000 C   0  0  0  0  0  0  0  2  0  0  0  0
  1  2  1  0        0
  2  3  1  0        0
  3  4  3  0        0
M  END
>  <CAS RN>
107197

>  <SMILES>
OCC#C

>  <Measured or Estimated Log10(mmol/L)>
-1.0307801

$$$$

CDXL12

  4  3  0  0  0  0  0  0  0  0999 V2000
   -1.0717    0.2062    0.0000 O   0  0  0  0  0  0  0  2  0  0  0  0
   -0.3572   -0.2062    0.0000 C   0  0  0  0  0  0  0  2  0  0  0  0
    0.3572    0.2062    0.0000 C   0  0  0  0  0  0  0  2  0  0  0  0
    1.0717   -0.2062    0.0000 O   0  0  0  0  0  0  0  2  0  0  0  0
  1  2  1  0        0
  2  3  1  0        0
  3  4  1  0        0
M  END
>  <CAS RN>
107211

>  <SMILES>
OCCO

>  <Measured or Estimated Log10(mmol/L)>
2.88291059

$$$$

CDXL12

  8  7  0  0  0  0  0  0  0  0999 V2000
    0.7145    0.6188    0.0000 O   0  0  0  0  0  0  0  2  0  0  0  0
    0.7145   -0.2062    0.0000 C   0  0  0  0  0  0  0  2  0  0  0  0
    0.0000   -0.6188    0.0000 C   0  0  0  0  0  0  0  2  0  0  0  0
   -0.7145   -0.2063    0.0000 C   0  0  0  0  0  0  0  2  0  0  0  0
   -1.4289    0.2062    0.0000 O   0  0  0  0  0  0  0  2  0  0  0  0
   -1.4289   -0.6188    0.0000 C   0  0  0  0  0  0  0  2  0  0  0  0
   -0.7145    0.6188    0.0000 C   0  0  0  0  0  0  0  2  0  0  0  0
    1.4289   -0.6188    0.0000 C   0  0  0  0  0  0  0  2  0  0  0  0
  1  2  1  0        0
  2  3  1  0        0
  3  4  1  0        0
  4  5  1  0        0
  4  6  1  0        0
  4  7  1  0        0
  2  8  1  0        0
M  END
>  <CAS RN>
107415

>  <SMILES>
OC(CC(O)(C)C)C

>  <Measured or Estimated Log10(mmol/L)>
1.78

$$$$

CDXL12

 40 39  0  0  0  0  0  0  0  0999 V2000
    1.2281   -3.3761    0.0000 N   0  0  0  0  0  0  0  2  0  0  0  0
    2.0485   -3.4623    0.0000 Cl  0  0  0  0  0  0  0  2  0  0  0  0
    0.6150   -2.8241    0.0000 C   0  0  0  0  0  0  0  2  0  0  0  0
    1.3996   -4.1831    0.0000 C   0  0  0  0  0  0  0  2  0  0  0  0
    0.5136   -3.7886    0.0000 C   0  0  0  0  0  0  0  2  0  0  0  0
   -0.2009   -3.3761    0.0000 C   0  0  0  0  0  0  0  2  0  0  0  0
   -0.9153   -3.7886    0.0000 C   0  0  0  0  0  0  0  2  0  0  0  0
   -1.6298   -3.3761    0.0000 C   0  0  0  0  0  0  0  2  0  0  0  0
   -2.3443   -3.7886    0.0000 C   0  0  0  0  0  0  0  2  0  0  0  0
   -3.0588   -3.3761    0.0000 C   0  0  0  0  0  0  0  2  0  0  0  0
   -3.7732   -3.7886    0.0000 C   0  0  0  0  0  0  0  2  0  0  0  0
   -4.4877   -3.3761    0.0000 C   0  0  0  0  0  0  0  2  0  0  0  0
   -5.2022   -3.7886    0.0000 C   0  0  0  0  0  0  0  2  0  0  0  0
   -5.9166   -3.3761    0.0000 C   0  0  0  0  0  0  0  2  0  0  0  0
   -6.6311   -3.7886    0.0000 C   0  0  0  0  0  0  0  2  0  0  0  0
   -7.3456   -3.3761    0.0000 C   0  0  0  0  0  0  0  2  0  0  0  0
   -8.0601   -3.7886    0.0000 C   0  0  0  0  0  0  0  2  0  0  0  0
   -8.7745   -3.3761    0.0000 C   0  0  0  0  0  0  0  2  0  0  0  0
   -9.4890   -3.7886    0.0000 C   0  0  0  0  0  0  0  2  0  0  0  0
  -10.2035   -3.3761    0.0000 C   0  0  0  0  0  0  0  2  0  0  0  0
  -10.9179   -3.7886    0.0000 C   0  0  0  0  0  0  0  2  0  0  0  0
  -11.6324   -3.3761    0.0000 C   0  0  0  0  0  0  0  2  0  0  0  0
    1.5636   -2.6224    0.0000 C   0  0  0  0  0  0  0  2  0  0  0  0
    2.3841   -2.5362    0.0000 C   0  0  0  0  0  0  0  2  0  0  0  0
    2.7197   -1.7825    0.0000 C   0  0  0  0  0  0  0  2  0  0  0  0
    3.5401   -1.6963    0.0000 C   0  0  0  0  0  0  0  2  0  0  0  0
    3.8757   -0.9426    0.0000 C   0  0  0  0  0  0  0  2  0  0  0  0
    4.6962   -0.8564    0.0000 C   0  0  0  0  0  0  0  2  0  0  0  0
    5.0317   -0.1027    0.0000 C   0  0  0  0  0  0  0  2  0  0  0  0
    5.8522   -0.0165    0.0000 C   0  0  0  0  0  0  0  2  0  0  0  0
    6.1878    0.7372    0.0000 C   0  0  0  0  0  0  0  2  0  0  0  0
    7.0083    0.8234    0.0000 C   0  0  0  0  0  0  0  2  0  0  0  0
    7.3438    1.5771    0.0000 C   0  0  0  0  0  0  0  2  0  0  0  0
    8.1643    1.6634    0.0000 C   0  0  0  0  0  0  0  2  0  0  0  0
    8.4999    2.4170    0.0000 C   0  0  0  0  0  0  0  2  0  0  0  0
    9.3203    2.5033    0.0000 C   0  0  0  0  0  0  0  2  0  0  0  0
    9.6559    3.2569    0.0000 C   0  0  0  0  0  0  0  2  0  0  0  0
   10.4764    3.3432    0.0000 C   0  0  0  0  0  0  0  2  0  0  0  0
   10.8119    4.0968    0.0000 C   0  0  0  0  0  0  0  2  0  0  0  0
   11.6324    4.1831    0.0000 C   0  0  0  0  0  0  0  2  0  0  0  0
  1  2  1  0        0
  1  3  1  0        0
  1  4  1  0        0
  1  5  1  0        0
  5  6  1  0        0
  6  7  1  0        0
  7  8  1  0        0
  8  9  1  0        0
  9 10  1  0        0
 10 11  1  0        0
 11 12  1  0        0
 12 13  1  0        0
 13 14  1  0        0
 14 15  1  0        0
 15 16  1  0        0
 16 17  1  0        0
 17 18  1  0        0
 18 19  1  0        0
 19 20  1  0        0
 20 21  1  0        0
 21 22  1  0        0
  1 23  1  0        0
 23 24  1  0        0
 24 25  1  0        0
 25 26  1  0        0
 26 27  1  0        0
 27 28  1  0        0
 28 29  1  0        0
 29 30  1  0        0
 30 31  1  0        0
 31 32  1  0        0
 32 33  1  0        0
 33 34  1  0        0
 34 35  1  0        0
 35 36  1  0        0
 36 37  1  0        0
 37 38  1  0        0
 38 39  1  0        0
 39 40  1  0        0
M  END
>  <CAS RN>
107642

>  <SMILES>
N(Cl)(C)(C)(CCCCCCCCCCCCCCCCCC)CCCCCCCCCCCCCCCCCC

>  <Measured or Estimated Log10(mmol/L)>
-2.9997691

$$$$

CDXL12

  6  5  0  0  0  0  0  0  0  0999 V2000
   -1.4289   -0.6187    0.0000 Br  0  0  0  0  0  0  0  2  0  0  0  0
   -0.7145   -0.2062    0.0000 C   0  0  0  0  0  0  0  2  0  0  0  0
    0.0000   -0.6187    0.0000 C   0  0  0  0  0  0  0  2  0  0  0  0
    0.7145   -0.2062    0.0000 C   0  0  0  0  0  0  0  2  0  0  0  0
    0.7145    0.6187    0.0000 Br  0  0  0  0  0  0  0  2  0  0  0  0
    1.4289   -0.6187    0.0000 C   0  0  0  0  0  0  0  2  0  0  0  0
  1  2  1  0        0
  2  3  1  0        0
  3  4  1  0        0
  4  5  1  0        0
  4  6  1  0        0
M  END
>  <CAS RN>
107802

>  <SMILES>
BrCCC(Br)C

>  <Measured or Estimated Log10(mmol/L)>
-1.391800817

$$$$

CDXL12

  6  5  0  0  0  0  0  0  0  0999 V2000
    0.7145    0.6187    0.0000 O   0  0  0  0  0  0  0  2  0  0  0  0
    0.7145   -0.2062    0.0000 C   0  0  0  0  0  0  0  2  0  0  0  0
    1.4289   -0.6187    0.0000 O   0  0  0  0  0  0  0  2  0  0  0  0
    0.0000   -0.6187    0.0000 C   0  0  0  0  0  0  0  2  0  0  0  0
   -0.7145   -0.2062    0.0000 C   0  0  0  0  0  0  0  2  0  0  0  0
   -1.4289   -0.6187    0.0000 C   0  0  0  0  0  0  0  2  0  0  0  0
  1  2  2  0        0
  2  3  1  0        0
  2  4  1  0        0
  4  5  1  0        0
  5  6  1  0        0
M  END
>  <CAS RN>
107926

>  <SMILES>
O=C(O)CCC

>  <Measured or Estimated Log10(mmol/L)>
1.248649477

$$$$

CDXL12

  6  5  0  0  0  0  0  0  0  0999 V2000
   -0.7145    0.6187    0.0000 O   0  0  0  0  0  0  0  2  0  0  0  0
   -0.7145   -0.2062    0.0000 C   0  0  0  0  0  0  0  2  0  0  0  0
   -0.0000   -0.6187    0.0000 O   0  0  0  0  0  0  0  2  0  0  0  0
    0.7145   -0.2062    0.0000 C   0  0  0  0  0  0  0  2  0  0  0  0
    1.4289   -0.6187    0.0000 C   0  0  0  0  0  0  0  2  0  0  0  0
   -1.4289   -0.6187    0.0000 C   0  0  0  0  0  0  0  2  0  0  0  0
  1  2  2  0        0
  2  3  1  0        0
  3  4  1  0        0
  4  5  2  0        0
  2  6  1  0        0
M  END
>  <CAS RN>
108054

>  <SMILES>
O=C(OC=C)C

>  <Measured or Estimated Log10(mmol/L)>
0.3060598

$$$$

CDXL12

  7  6  0  0  0  0  0  0  0  0999 V2000
    0.7145    0.6187    0.0000 O   0  0  0  0  0  0  0  2  0  0  0  0
    0.7145   -0.2062    0.0000 C   0  0  0  0  0  0  0  2  0  0  0  0
    0.0000   -0.6188    0.0000 C   0  0  0  0  0  0  0  2  0  0  0  0
   -0.7145   -0.2062    0.0000 C   0  0  0  0  0  0  0  2  0  0  0  0
   -1.4289   -0.6187    0.0000 C   0  0  0  0  0  0  0  2  0  0  0  0
   -0.7145    0.6188    0.0000 C   0  0  0  0  0  0  0  2  0  0  0  0
    1.4289   -0.6188    0.0000 C   0  0  0  0  0  0  0  2  0  0  0  0
  1  2  2  0        0
  2  3  1  0        0
  3  4  1  0        0
  4  5  1  0        0
  4  6  1  0        0
  2  7  1  0        0
M  END
>  <CAS RN>
108101

>  <SMILES>
O=C(CC(C)C)C

>  <Measured or Estimated Log10(mmol/L)>
1.3941853

$$$$

CDXL12

  7  6  0  0  0  0  0  0  0  0999 V2000
    0.0000   -0.6188    0.0000 N   0  0  0  0  0  0  0  2  0  0  0  0
    0.7145   -0.2062    0.0000 C   0  0  0  0  0  0  0  2  0  0  0  0
    0.7145    0.6187    0.0000 C   0  0  0  0  0  0  0  2  0  0  0  0
    1.4289   -0.6188    0.0000 C   0  0  0  0  0  0  0  2  0  0  0  0
   -0.7145   -0.2062    0.0000 C   0  0  0  0  0  0  0  2  0  0  0  0
   -1.4289   -0.6187    0.0000 C   0  0  0  0  0  0  0  2  0  0  0  0
   -0.7145    0.6188    0.0000 C   0  0  0  0  0  0  0  2  0  0  0  0
  1  2  1  0        0
  2  3  1  0        0
  2  4  1  0        0
  1  5  1  0        0
  5  6  1  0        0
  5  7  1  0        0
M  END
>  <CAS RN>
108189

>  <SMILES>
N(C(C)C)C(C)C

>  <Measured or Estimated Log10(mmol/L)>
0.646127543

$$$$

CDXL12

  7  6  0  0  0  0  0  0  0  0999 V2000
   -0.7145    0.6187    0.0000 O   0  0  0  0  0  0  0  2  0  0  0  0
   -0.7145   -0.2062    0.0000 C   0  0  0  0  0  0  0  2  0  0  0  0
   -0.0000   -0.6188    0.0000 O   0  0  0  0  0  0  0  2  0  0  0  0
    0.7145   -0.2062    0.0000 C   0  0  0  0  0  0  0  2  0  0  0  0
    1.4289   -0.6187    0.0000 C   0  0  0  0  0  0  0  2  0  0  0  0
    0.7145    0.6188    0.0000 C   0  0  0  0  0  0  0  2  0  0  0  0
   -1.4289   -0.6188    0.0000 C   0  0  0  0  0  0  0  2  0  0  0  0
  1  2  2  0        0
  2  3  1  0        0
  3  4  1  0        0
  4  5  1  0        0
  4  6  1  0        0
  2  7  1  0        0
M  END
>  <CAS RN>
108214

>  <SMILES>
O=C(OC(C)C)C

>  <Measured or Estimated Log10(mmol/L)>
0.8345779

$$$$

CDXL12

  8  8  0  0  0  0  0  0  0  0999 V2000
    0.7145    0.4125    0.0000 C   0  0  0  0  0  0  0  2  0  0  0  0
    0.7145   -0.4125    0.0000 C   0  0  0  0  0  0  0  2  0  0  0  0
    0.0000   -0.8250    0.0000 C   0  0  0  0  0  0  0  2  0  0  0  0
   -0.7145   -0.4125    0.0000 C   0  0  0  0  0  0  0  2  0  0  0  0
   -0.7145    0.4125    0.0000 C   0  0  0  0  0  0  0  2  0  0  0  0
   -1.4289    0.8250    0.0000 C   0  0  0  0  0  0  0  2  0  0  0  0
    0.0000    0.8250    0.0000 C   0  0  0  0  0  0  0  2  0  0  0  0
    1.4289    0.8250    0.0000 C   0  0  0  0  0  0  0  2  0  0  0  0
  1  2  4  0        0
  2  3  4  0        0
  3  4  4  0        0
  4  5  4  0        0
  5  6  1  0        0
  5  7  4  0        0
  1  7  4  0        0
  1  8  1  0        0
M  END
>  <CAS RN>
108383

>  <SMILES>
c1(cccc(C)c1)C

>  <Measured or Estimated Log10(mmol/L)>
-0.427750445

$$$$

CDXL12

  8  8  0  0  0  0  0  0  0  0999 V2000
    1.4289    0.8250    0.0000 O   0  0  0  0  0  0  0  2  0  0  0  0
    0.7145    0.4125    0.0000 C   0  0  0  0  0  0  0  2  0  0  0  0
    0.7145   -0.4125    0.0000 C   0  0  0  0  0  0  0  2  0  0  0  0
    0.0000   -0.8250    0.0000 C   0  0  0  0  0  0  0  2  0  0  0  0
   -0.7145   -0.4125    0.0000 C   0  0  0  0  0  0  0  2  0  0  0  0
   -0.7145    0.4125    0.0000 C   0  0  0  0  0  0  0  2  0  0  0  0
   -1.4289    0.8250    0.0000 C   0  0  0  0  0  0  0  2  0  0  0  0
    0.0000    0.8250    0.0000 C   0  0  0  0  0  0  0  2  0  0  0  0
  1  2  1  0        0
  2  3  4  0        0
  3  4  4  0        0
  4  5  4  0        0
  5  6  4  0        0
  6  7  1  0        0
  6  8  4  0        0
  2  8  4  0        0
M  END
>  <CAS RN>
108394

>  <SMILES>
Oc1cccc(C)c1

>  <Measured or Estimated Log10(mmol/L)>
-0.759828516

$$$$

CDXL12

  8  8  0  0  0  0  0  0  0  0999 V2000
    1.4289    0.8250    0.0000 O   0  0  0  0  0  0  0  2  0  0  0  0
    0.7145    0.4125    0.0000 C   0  0  0  0  0  0  0  2  0  0  0  0
    0.7145   -0.4125    0.0000 C   0  0  0  0  0  0  0  2  0  0  0  0
    0.0000   -0.8250    0.0000 C   0  0  0  0  0  0  0  2  0  0  0  0
   -0.7145   -0.4125    0.0000 C   0  0  0  0  0  0  0  2  0  0  0  0
   -0.7145    0.4125    0.0000 C   0  0  0  0  0  0  0  2  0  0  0  0
   -1.4289    0.8250    0.0000 Cl  0  0  0  0  0  0  0  2  0  0  0  0
    0.0000    0.8250    0.0000 C   0  0  0  0  0  0  0  2  0  0  0  0
  1  2  1  0        0
  2  3  4  0        0
  3  4  4  0        0
  4  5  4  0        0
  5  6  4  0        0
  6  7  1  0        0
  6  8  4  0        0
  2  8  4  0        0
M  END
>  <CAS RN>
108430

>  <SMILES>
Oc1cccc(Cl)c1

>  <Measured or Estimated Log10(mmol/L)>
-0.91

$$$$

CDXL12

  8  8  0  0  0  0  0  0  0  0999 V2000
    1.4289    0.8250    0.0000 N   0  0  0  0  0  0  0  2  0  0  0  0
    0.7145    0.4125    0.0000 C   0  0  0  0  0  0  0  2  0  0  0  0
    0.7145   -0.4125    0.0000 C   0  0  0  0  0  0  0  2  0  0  0  0
    0.0000   -0.8250    0.0000 C   0  0  0  0  0  0  0  2  0  0  0  0
   -0.7145   -0.4125    0.0000 C   0  0  0  0  0  0  0  2  0  0  0  0
   -0.7145    0.4125    0.0000 C   0  0  0  0  0  0  0  2  0  0  0  0
   -1.4289    0.8250    0.0000 C   0  0  0  0  0  0  0  2  0  0  0  0
    0.0000    0.8250    0.0000 C   0  0  0  0  0  0  0  2  0  0  0  0
  1  2  1  0        0
  2  3  4  0        0
  3  4  4  0        0
  4  5  4  0        0
  5  6  4  0        0
  6  7  1  0        0
  6  8  4  0        0
  2  8  4  0        0
M  END
>  <CAS RN>
108441

>  <SMILES>
Nc1cccc(C)c1

>  <Measured or Estimated Log10(mmol/L)>
-2.166693633

$$$$

CDXL12

  8  8  0  0  0  0  0  0  0  0999 V2000
    1.4289    0.8250    0.0000 O   0  0  0  0  0  0  0  2  0  0  0  0
    0.7145    0.4125    0.0000 C   0  0  0  0  0  0  0  2  0  0  0  0
    0.7145   -0.4125    0.0000 C   0  0  0  0  0  0  0  2  0  0  0  0
    0.0000   -0.8250    0.0000 C   0  0  0  0  0  0  0  2  0  0  0  0
   -0.7145   -0.4125    0.0000 C   0  0  0  0  0  0  0  2  0  0  0  0
   -0.7145    0.4125    0.0000 C   0  0  0  0  0  0  0  2  0  0  0  0
   -1.4289    0.8250    0.0000 O   0  0  0  0  0  0  0  2  0  0  0  0
    0.0000    0.8250    0.0000 C   0  0  0  0  0  0  0  2  0  0  0  0
  1  2  1  0        0
  2  3  4  0        0
  3  4  4  0        0
  4  5  4  0        0
  5  6  4  0        0
  6  7  1  0        0
  6  8  4  0        0
  2  8  4  0        0
M  END
>  <CAS RN>
108463

>  <SMILES>
Oc1cccc(O)c1

>  <Measured or Estimated Log10(mmol/L)>
-2.115239173

$$$$

CDXL12

  9  9  0  0  0  0  0  0  0  0999 V2000
    0.7145    0.8250    0.0000 C   0  0  0  0  0  0  0  2  0  0  0  0
    0.7145   -0.0000    0.0000 C   0  0  0  0  0  0  0  2  0  0  0  0
    0.0000   -0.4125    0.0000 C   0  0  0  0  0  0  0  2  0  0  0  0
   -0.7145   -0.0000    0.0000 C   0  0  0  0  0  0  0  2  0  0  0  0
   -0.7145    0.8250    0.0000 C   0  0  0  0  0  0  0  2  0  0  0  0
   -1.4289    1.2375    0.0000 C   0  0  0  0  0  0  0  2  0  0  0  0
    0.0000    1.2375    0.0000 C   0  0  0  0  0  0  0  2  0  0  0  0
    0.0000   -1.2375    0.0000 C   0  0  0  0  0  0  0  2  0  0  0  0
    1.4289    1.2375    0.0000 C   0  0  0  0  0  0  0  2  0  0  0  0
  1  2  4  0        0
  2  3  4  0        0
  3  4  4  0        0
  4  5  4  0        0
  5  6  1  0        0
  5  7  4  0        0
  1  7  4  0        0
  3  8  1  0        0
  1  9  1  0        0
M  END
>  <CAS RN>
108678

>  <SMILES>
c1(cc(cc(C)c1)C)C

>  <Measured or Estimated Log10(mmol/L)>
-1.3

$$$$

CDXL12

  9  9  0  0  0  0  0  0  0  0999 V2000
    1.4289    1.2375    0.0000 O   0  0  0  0  0  0  0  2  0  0  0  0
    0.7145    0.8250    0.0000 C   0  0  0  0  0  0  0  2  0  0  0  0
    0.7145   -0.0000    0.0000 C   0  0  0  0  0  0  0  2  0  0  0  0
    0.0000   -0.4125    0.0000 C   0  0  0  0  0  0  0  2  0  0  0  0
   -0.7145   -0.0000    0.0000 C   0  0  0  0  0  0  0  2  0  0  0  0
   -0.7145    0.8250    0.0000 C   0  0  0  0  0  0  0  2  0  0  0  0
   -1.4289    1.2375    0.0000 C   0  0  0  0  0  0  0  2  0  0  0  0
    0.0000    1.2375    0.0000 C   0  0  0  0  0  0  0  2  0  0  0  0
    0.0000   -1.2375    0.0000 C   0  0  0  0  0  0  0  2  0  0  0  0
  1  2  1  0        0
  2  3  4  0        0
  3  4  4  0        0
  4  5  4  0        0
  5  6  4  0        0
  6  7  1  0        0
  6  8  4  0        0
  2  8  4  0        0
  4  9  1  0        0
M  END
>  <CAS RN>
108689

>  <SMILES>
Oc1cc(cc(C)c1)C

>  <Measured or Estimated Log10(mmol/L)>
-0.74

$$$$

CDXL12

  9  9  0  0  0  0  0  0  0  0999 V2000
    0.7145    0.8250    0.0000 C   0  0  0  0  0  0  0  2  0  0  0  0
    0.7145   -0.0000    0.0000 C   0  0  0  0  0  0  0  2  0  0  0  0
    0.0000   -0.4125    0.0000 C   0  0  0  0  0  0  0  2  0  0  0  0
   -0.7145   -0.0000    0.0000 C   0  0  0  0  0  0  0  2  0  0  0  0
   -0.7145    0.8250    0.0000 C   0  0  0  0  0  0  0  2  0  0  0  0
   -1.4289    1.2375    0.0000 Cl  0  0  0  0  0  0  0  2  0  0  0  0
    0.0000    1.2375    0.0000 C   0  0  0  0  0  0  0  2  0  0  0  0
    0.0000   -1.2375    0.0000 Cl  0  0  0  0  0  0  0  2  0  0  0  0
    1.4289    1.2375    0.0000 Cl  0  0  0  0  0  0  0  2  0  0  0  0
  1  2  4  0        0
  2  3  4  0        0
  3  4  4  0        0
  4  5  4  0        0
  5  6  1  0        0
  5  7  4  0        0
  1  7  4  0        0
  3  8  1  0        0
  1  9  1  0        0
M  END
>  <CAS RN>
108703

>  <SMILES>
c1(cc(cc(Cl)c1)Cl)Cl

>  <Measured or Estimated Log10(mmol/L)>
-1.83387293

$$$$

CDXL12

  7  7  0  0  0  0  0  0  0  0999 V2000
    1.0717    0.8250    0.0000 Br  0  0  0  0  0  0  0  2  0  0  0  0
    0.3572    0.4125    0.0000 C   0  0  0  0  0  0  0  2  0  0  0  0
    0.3572   -0.4125    0.0000 C   0  0  0  0  0  0  0  2  0  0  0  0
   -0.3572   -0.8250    0.0000 C   0  0  0  0  0  0  0  2  0  0  0  0
   -1.0717   -0.4125    0.0000 C   0  0  0  0  0  0  0  2  0  0  0  0
   -1.0717    0.4125    0.0000 C   0  0  0  0  0  0  0  2  0  0  0  0
   -0.3572    0.8250    0.0000 C   0  0  0  0  0  0  0  2  0  0  0  0
  1  2  1  0        0
  2  3  1  0        0
  3  4  1  0        0
  4  5  1  0        0
  5  6  1  0        0
  6  7  1  0        0
  2  7  1  0        0
M  END
>  <CAS RN>
108850

>  <SMILES>
BrC1CCCCC1

>  <Measured or Estimated Log10(mmol/L)>
-0.890136133

$$$$

CDXL12

  7  7  0  0  0  0  0  0  0  0999 V2000
    0.3572    0.4125    0.0000 C   0  0  0  0  0  0  0  2  0  0  0  0
    0.3572   -0.4125    0.0000 C   0  0  0  0  0  0  0  2  0  0  0  0
   -0.3572   -0.8250    0.0000 C   0  0  0  0  0  0  0  2  0  0  0  0
   -1.0717   -0.4125    0.0000 C   0  0  0  0  0  0  0  2  0  0  0  0
   -1.0717    0.4125    0.0000 C   0  0  0  0  0  0  0  2  0  0  0  0
   -0.3572    0.8250    0.0000 C   0  0  0  0  0  0  0  2  0  0  0  0
    1.0717    0.8250    0.0000 Br  0  0  0  0  0  0  0  2  0  0  0  0
  1  2  4  0        0
  2  3  4  0        0
  3  4  4  0        0
  4  5  4  0        0
  5  6  4  0        0
  1  6  4  0        0
  1  7  1  0        0
M  END
>  <CAS RN>
108861

>  <SMILES>
c1(ccccc1)Br

>  <Measured or Estimated Log10(mmol/L)>
-2.3572569

$$$$

CDXL12

  7  7  0  0  0  0  0  0  0  0999 V2000
    0.3572    0.4125    0.0000 C   0  0  0  0  0  0  0  2  0  0  0  0
    0.3572   -0.4125    0.0000 C   0  0  0  0  0  0  0  2  0  0  0  0
   -0.3572   -0.8250    0.0000 C   0  0  0  0  0  0  0  2  0  0  0  0
   -1.0717   -0.4125    0.0000 C   0  0  0  0  0  0  0  2  0  0  0  0
   -1.0717    0.4125    0.0000 C   0  0  0  0  0  0  0  2  0  0  0  0
   -0.3572    0.8250    0.0000 C   0  0  0  0  0  0  0  2  0  0  0  0
    1.0717    0.8250    0.0000 C   0  0  0  0  0  0  0  2  0  0  0  0
  1  2  1  0        0
  2  3  1  0        0
  3  4  1  0        0
  4  5  1  0        0
  5  6  1  0        0
  1  6  1  0        0
  1  7  1  0        0
M  END
>  <CAS RN>
108872

>  <SMILES>
C1(CCCCC1)C

>  <Measured or Estimated Log10(mmol/L)>
-1.82

$$$$

CDXL12

  7  7  0  0  0  0  0  0  0  0999 V2000
    0.3572    0.4125    0.0000 C   0  0  0  0  0  0  0  2  0  0  0  0
    0.3572   -0.4125    0.0000 C   0  0  0  0  0  0  0  2  0  0  0  0
   -0.3572   -0.8250    0.0000 C   0  0  0  0  0  0  0  2  0  0  0  0
   -1.0717   -0.4125    0.0000 C   0  0  0  0  0  0  0  2  0  0  0  0
   -1.0717    0.4125    0.0000 C   0  0  0  0  0  0  0  2  0  0  0  0
   -0.3572    0.8250    0.0000 C   0  0  0  0  0  0  0  2  0  0  0  0
    1.0717    0.8250    0.0000 C   0  0  0  0  0  0  0  2  0  0  0  0
  1  2  4  0        0
  2  3  4  0        0
  3  4  4  0        0
  4  5  4  0        0
  5  6  4  0        0
  1  6  4  0        0
  1  7  1  0        0
M  END
>  <CAS RN>
108883

>  <SMILES>
c1(ccccc1)C

>  <Measured or Estimated Log10(mmol/L)>
0.025441642

$$$$

CDXL12

  7  7  0  0  0  0  0  0  0  0999 V2000
   -1.0717   -0.4125    0.0000 N   0  0  0  0  0  0  0  2  0  0  0  0
   -1.0717    0.4125    0.0000 C   0  0  0  0  0  0  0  2  0  0  0  0
   -0.3572    0.8250    0.0000 C   0  0  0  0  0  0  0  2  0  0  0  0
    0.3572    0.4125    0.0000 C   0  0  0  0  0  0  0  2  0  0  0  0
    1.0717    0.8250    0.0000 C   0  0  0  0  0  0  0  2  0  0  0  0
    0.3572   -0.4125    0.0000 C   0  0  0  0  0  0  0  2  0  0  0  0
   -0.3572   -0.8250    0.0000 C   0  0  0  0  0  0  0  2  0  0  0  0
  1  2  4  0        0
  2  3  4  0        0
  3  4  4  0        0
  4  5  1  0        0
  4  6  4  0        0
  6  7  4  0        0
  1  7  4  0        0
M  END
>  <CAS RN>
108894

>  <SMILES>
n1ccc(C)cc1

>  <Measured or Estimated Log10(mmol/L)>
-1.870583558

$$$$

CDXL12

  7  7  0  0  0  0  0  0  0  0999 V2000
    0.3572    0.4125    0.0000 C   0  0  0  0  0  0  0  2  0  0  0  0
    0.3572   -0.4125    0.0000 C   0  0  0  0  0  0  0  2  0  0  0  0
   -0.3572   -0.8250    0.0000 C   0  0  0  0  0  0  0  2  0  0  0  0
   -1.0717   -0.4125    0.0000 C   0  0  0  0  0  0  0  2  0  0  0  0
   -1.0717    0.4125    0.0000 C   0  0  0  0  0  0  0  2  0  0  0  0
   -0.3572    0.8250    0.0000 C   0  0  0  0  0  0  0  2  0  0  0  0
    1.0717    0.8250    0.0000 Cl  0  0  0  0  0  0  0  2  0  0  0  0
  1  2  4  0        0
  2  3  4  0        0
  3  4  4  0        0
  4  5  4  0        0
  5  6  4  0        0
  1  6  4  0        0
  1  7  1  0        0
M  END
>  <CAS RN>
108907

>  <SMILES>
c1(ccccc1)Cl

>  <Measured or Estimated Log10(mmol/L)>
-0.723000623

$$$$

CDXL12

  7  7  0  0  0  0  0  0  0  0999 V2000
    1.0717    0.8250    0.0000 N   0  0  0  0  0  0  0  2  0  0  0  0
    0.3572    0.4125    0.0000 C   0  0  0  0  0  0  0  2  0  0  0  0
    0.3572   -0.4125    0.0000 C   0  0  0  0  0  0  0  2  0  0  0  0
   -0.3572   -0.8250    0.0000 C   0  0  0  0  0  0  0  2  0  0  0  0
   -1.0717   -0.4125    0.0000 C   0  0  0  0  0  0  0  2  0  0  0  0
   -1.0717    0.4125    0.0000 C   0  0  0  0  0  0  0  2  0  0  0  0
   -0.3572    0.8250    0.0000 C   0  0  0  0  0  0  0  2  0  0  0  0
  1  2  1  0        0
  2  3  1  0        0
  3  4  1  0        0
  4  5  1  0        0
  5  6  1  0        0
  6  7  1  0        0
  2  7  1  0        0
M  END
>  <CAS RN>
108918

>  <SMILES>
NC1CCCCC1

>  <Measured or Estimated Log10(mmol/L)>
-0.3882679

$$$$

CDXL12

  7  7  0  0  0  0  0  0  0  0999 V2000
    1.0717    0.8250    0.0000 O   0  0  0  0  0  0  0  2  0  0  0  0
    0.3572    0.4125    0.0000 C   0  0  0  0  0  0  0  2  0  0  0  0
    0.3572   -0.4125    0.0000 C   0  0  0  0  0  0  0  2  0  0  0  0
   -0.3572   -0.8250    0.0000 C   0  0  0  0  0  0  0  2  0  0  0  0
   -1.0717   -0.4125    0.0000 C   0  0  0  0  0  0  0  2  0  0  0  0
   -1.0717    0.4125    0.0000 C   0  0  0  0  0  0  0  2  0  0  0  0
   -0.3572    0.8250    0.0000 C   0  0  0  0  0  0  0  2  0  0  0  0
  1  2  2  0        0
  2  3  1  0        0
  3  4  1  0        0
  4  5  1  0        0
  5  6  1  0        0
  6  7  1  0        0
  2  7  1  0        0
M  END
>  <CAS RN>
108941

>  <SMILES>
O=C1CCCCC1

>  <Measured or Estimated Log10(mmol/L)>
0.6480421

$$$$

CDXL12

  7  7  0  0  0  0  0  0  0  0999 V2000
    1.0717    0.8250    0.0000 O   0  0  0  0  0  0  0  2  0  0  0  0
    0.3572    0.4125    0.0000 C   0  0  0  0  0  0  0  2  0  0  0  0
    0.3572   -0.4125    0.0000 C   0  0  0  0  0  0  0  2  0  0  0  0
   -0.3572   -0.8250    0.0000 C   0  0  0  0  0  0  0  2  0  0  0  0
   -1.0717   -0.4125    0.0000 C   0  0  0  0  0  0  0  2  0  0  0  0
   -1.0717    0.4125    0.0000 C   0  0  0  0  0  0  0  2  0  0  0  0
   -0.3572    0.8250    0.0000 C   0  0  0  0  0  0  0  2  0  0  0  0
  1  2  1  0        0
  2  3  4  0        0
  3  4  4  0        0
  4  5  4  0        0
  5  6  4  0        0
  6  7  4  0        0
  2  7  4  0        0
M  END
>  <CAS RN>
108952

>  <SMILES>
Oc1ccccc1

>  <Measured or Estimated Log10(mmol/L)>
-0.468499639

$$$$

CDXL12

  7  7  0  0  0  0  0  0  0  0999 V2000
   -0.3572   -0.8250    0.0000 N   0  0  0  0  0  0  0  2  0  0  0  0
   -1.0717   -0.4125    0.0000 C   0  0  0  0  0  0  0  2  0  0  0  0
   -1.0717    0.4125    0.0000 C   0  0  0  0  0  0  0  2  0  0  0  0
   -0.3572    0.8250    0.0000 C   0  0  0  0  0  0  0  2  0  0  0  0
    0.3572    0.4125    0.0000 C   0  0  0  0  0  0  0  2  0  0  0  0
    1.0717    0.8250    0.0000 C   0  0  0  0  0  0  0  2  0  0  0  0
    0.3572   -0.4125    0.0000 C   0  0  0  0  0  0  0  2  0  0  0  0
  1  2  4  0        0
  2  3  4  0        0
  3  4  4  0        0
  4  5  4  0        0
  5  6  1  0        0
  5  7  4  0        0
  1  7  4  0        0
M  END
>  <CAS RN>
108996

>  <SMILES>
n1cccc(C)c1

>  <Measured or Estimated Log10(mmol/L)>
-1.652690548

$$$$

CDXL12

  7  7  0  0  0  0  0  0  0  0999 V2000
    0.3572   -0.4125    0.0000 N   0  0  0  0  0  0  0  2  0  0  0  0
   -0.3572   -0.8250    0.0000 C   0  0  0  0  0  0  0  2  0  0  0  0
   -1.0717   -0.4125    0.0000 C   0  0  0  0  0  0  0  2  0  0  0  0
   -1.0717    0.4125    0.0000 C   0  0  0  0  0  0  0  2  0  0  0  0
   -0.3572    0.8250    0.0000 C   0  0  0  0  0  0  0  2  0  0  0  0
    0.3572    0.4125    0.0000 C   0  0  0  0  0  0  0  2  0  0  0  0
    1.0717    0.8250    0.0000 C   0  0  0  0  0  0  0  2  0  0  0  0
  1  2  4  0        0
  2  3  4  0        0
  3  4  4  0        0
  4  5  4  0        0
  5  6  4  0        0
  1  6  4  0        0
  6  7  1  0        0
M  END
>  <CAS RN>
109068

>  <SMILES>
n1ccccc1C

>  <Measured or Estimated Log10(mmol/L)>
-1.549114421

$$$$

CDXL12

 13 12  0  0  0  0  0  0  0  0999 V2000
    2.8579    0.2062    0.0000 C   0  0  0  0  0  0  0  2  0  0  0  0
    2.1434   -0.2062    0.0000 N   0  0  0  0  0  0  0  2  0  0  0  0
    1.4289    0.2062    0.0000 N   0  0  0  0  0  0  0  2  0  0  0  0
    0.7145   -0.2062    0.0000 N   0  0  0  0  0  0  0  2  0  0  0  0
   -0.0000    0.2063    0.0000 N   0  0  0  0  0  0  0  2  0  0  0  0
   -0.7145   -0.2062    0.0000 C   0  0  0  0  0  0  0  2  0  0  0  0
   -0.7145   -1.0312    0.0000 N   0  0  0  0  0  0  0  2  0  0  0  0
   -1.4289    0.2062    0.0000 N   0  0  0  0  0  0  0  2  0  0  0  0
   -2.1434   -0.2062    0.0000 N   0  0  0  0  0  0  0  2  0  0  0  0
   -2.8579    0.2062    0.0000 N   0  0  0  0  0  0  0  2  0  0  0  0
   -3.5724   -0.2062    0.0000 O   0  0  0  0  0  0  0  2  0  0  0  0
    2.8579    1.0312    0.0000 N   0  0  0  0  0  0  0  2  0  0  0  0
    3.5724   -0.2062    0.0000 N   0  0  0  0  0  0  0  2  0  0  0  0
  1  2  2  0        0
  2  3  1  0        0
  3  4  1  0        0
  4  5  1  0        0
  5  6  2  0        0
  6  7  1  0        0
  6  8  1  0        0
  8  9  2  0        0
  9 10  1  0        0
 10 11  2  0        0
  1 12  1  0        0
  1 13  1  0        0
M  END
>  <CAS RN>
109273

>  <SMILES>
C(=NNNN=C(N)N=NN=O)(N)N

>  <Measured or Estimated Log10(mmol/L)>
-0.672455772

$$$$

CDXL12

 12 11  0  0  0  0  0  0  0  0999 V2000
   -0.7145   -0.6187    0.0000 N   0  0  0  0  0  0  0  2  0  0  0  0
   -1.4289   -0.2062    0.0000 C   0  0  0  0  0  0  0  2  0  0  0  0
   -2.1434   -0.6187    0.0000 C   0  0  0  0  0  0  0  2  0  0  0  0
   -2.8579   -0.2062    0.0000 C   0  0  0  0  0  0  0  2  0  0  0  0
   -3.5724   -0.6187    0.0000 C   0  0  0  0  0  0  0  2  0  0  0  0
    0.0000   -0.2062    0.0000 C   0  0  0  0  0  0  0  2  0  0  0  0
    0.0000    0.6188    0.0000 S   0  0  0  0  0  0  0  2  0  0  0  0
    0.7145   -0.6188    0.0000 N   0  0  0  0  0  0  0  2  0  0  0  0
    1.4289   -0.2062    0.0000 C   0  0  0  0  0  0  0  2  0  0  0  0
    2.1434   -0.6188    0.0000 C   0  0  0  0  0  0  0  2  0  0  0  0
    2.8579   -0.2062    0.0000 C   0  0  0  0  0  0  0  2  0  0  0  0
    3.5724   -0.6188    0.0000 C   0  0  0  0  0  0  0  2  0  0  0  0
  1  2  1  0        0
  2  3  1  0        0
  3  4  1  0        0
  4  5  1  0        0
  1  6  1  0        0
  6  7  2  0        0
  6  8  1  0        0
  8  9  1  0        0
  9 10  1  0        0
 10 11  1  0        0
 11 12  1  0        0
M  END
>  <CAS RN>
109466

>  <SMILES>
N(CCCC)C(=S)NCCCC

>  <Measured or Estimated Log10(mmol/L)>
-1.245551871

$$$$

CDXL12

  7  6  0  0  0  0  0  0  0  0999 V2000
    0.3572   -0.6187    0.0000 C   0  0  0  0  0  0  0  2  0  0  0  0
   -0.3572   -0.2062    0.0000 C   0  0  0  0  0  0  0  2  0  0  0  0
   -1.0717   -0.6187    0.0000 C   0  0  0  0  0  0  0  2  0  0  0  0
   -1.7862   -0.2062    0.0000 C   0  0  0  0  0  0  0  2  0  0  0  0
    1.0717   -0.2062    0.0000 C   0  0  0  0  0  0  0  2  0  0  0  0
    1.0717    0.6187    0.0000 O   0  0  0  0  0  0  0  2  0  0  0  0
    1.7862   -0.6187    0.0000 O   0  0  0  0  0  0  0  2  0  0  0  0
  1  2  1  0        0
  2  3  1  0        0
  3  4  1  0        0
  1  5  1  0        0
  5  6  2  0        0
  5  7  1  0        0
M  END
>  <CAS RN>
109524

>  <SMILES>
C(CCC)C(=O)O

>  <Measured or Estimated Log10(mmol/L)>
-0.355953575

$$$$

CDXL12

  7  6  0  0  0  0  0  0  0  0999 V2000
    1.7862   -0.6187    0.0000 N   0  0  0  0  0  0  0  2  0  0  0  0
    1.0717   -0.2062    0.0000 C   0  0  0  0  0  0  0  2  0  0  0  0
    1.0717    0.6187    0.0000 S   0  0  0  0  0  0  0  2  0  0  0  0
    0.3572   -0.6187    0.0000 N   0  0  0  0  0  0  0  2  0  0  0  0
   -0.3572   -0.2062    0.0000 C   0  0  0  0  0  0  0  2  0  0  0  0
   -1.0717   -0.6187    0.0000 C   0  0  0  0  0  0  0  2  0  0  0  0
   -1.7862   -0.2062    0.0000 C   0  0  0  0  0  0  0  2  0  0  0  0
  1  2  1  0        0
  2  3  2  0        0
  2  4  1  0        0
  4  5  1  0        0
  5  6  1  0        0
  6  7  2  0        0
M  END
>  <CAS RN>
109579

>  <SMILES>
NC(=S)NCC=C

>  <Measured or Estimated Log10(mmol/L)>
-0.7820657

$$$$

CDXL12

  7  6  0  0  0  0  0  0  0  0999 V2000
   -1.0717    0.6187    0.0000 O   0  0  0  0  0  0  0  2  0  0  0  0
   -1.0717   -0.2062    0.0000 C   0  0  0  0  0  0  0  2  0  0  0  0
   -0.3572   -0.6187    0.0000 O   0  0  0  0  0  0  0  2  0  0  0  0
    0.3572   -0.2062    0.0000 C   0  0  0  0  0  0  0  2  0  0  0  0
    1.0717   -0.6187    0.0000 C   0  0  0  0  0  0  0  2  0  0  0  0
    1.7862   -0.2062    0.0000 C   0  0  0  0  0  0  0  2  0  0  0  0
   -1.7862   -0.6187    0.0000 C   0  0  0  0  0  0  0  2  0  0  0  0
  1  2  2  0        0
  2  3  1  0        0
  3  4  1  0        0
  4  5  1  0        0
  5  6  1  0        0
  2  7  1  0        0
M  END
>  <CAS RN>
109604

>  <SMILES>
O=C(OCCC)C

>  <Measured or Estimated Log10(mmol/L)>
0.430417

$$$$

CDXL12

  5  4  0  0  0  0  0  0  0  0999 V2000
   -0.7145    0.2062    0.0000 C   0  0  0  0  0  0  0  2  0  0  0  0
    0.0000   -0.2062    0.0000 C   0  0  0  0  0  0  0  2  0  0  0  0
    0.7145    0.2062    0.0000 C   0  0  0  0  0  0  0  2  0  0  0  0
    1.4289   -0.2062    0.0000 C   0  0  0  0  0  0  0  2  0  0  0  0
   -1.4289   -0.2062    0.0000 C   0  0  0  0  0  0  0  2  0  0  0  0
  1  2  1  0        0
  2  3  1  0        0
  3  4  1  0        0
  1  5  1  0        0
M  END
>  <CAS RN>
109660

>  <SMILES>
C(CCC)C

>  <Measured or Estimated Log10(mmol/L)>
-0.88

$$$$

CDXL12

  5  4  0  0  0  0  0  0  0  0999 V2000
   -1.4289   -0.2062    0.0000 N   0  0  0  0  0  0  0  2  0  0  0  0
   -0.7145    0.2062    0.0000 C   0  0  0  0  0  0  0  2  0  0  0  0
    0.0000   -0.2062    0.0000 C   0  0  0  0  0  0  0  2  0  0  0  0
    0.7145    0.2062    0.0000 C   0  0  0  0  0  0  0  2  0  0  0  0
    1.4289   -0.2062    0.0000 C   0  0  0  0  0  0  0  2  0  0  0  0
  1  2  1  0        0
  2  3  1  0        0
  3  4  1  0        0
  4  5  1  0        0
M  END
>  <CAS RN>
109739

>  <SMILES>
NCCCC

>  <Measured or Estimated Log10(mmol/L)>
0.01

$$$$

CDXL12

  5  5  0  0  0  0  0  0  0  0999 V2000
    0.4125    0.6348    0.0000 S   0  0  0  0  0  0  0  2  0  0  0  0
    0.6674   -0.1498    0.0000 C   0  0  0  0  0  0  0  2  0  0  0  0
   -0.0000   -0.6348    0.0000 C   0  0  0  0  0  0  0  2  0  0  0  0
   -0.6674   -0.1498    0.0000 C   0  0  0  0  0  0  0  2  0  0  0  0
   -0.4125    0.6348    0.0000 C   0  0  0  0  0  0  0  2  0  0  0  0
  1  2  4  0        0
  2  3  4  0        0
  3  4  4  0        0
  4  5  4  0        0
  1  5  4  0        0
M  END
>  <CAS RN>
110021

>  <SMILES>
s1cccc1

>  <Measured or Estimated Log10(mmol/L)>
0.577424612

$$$$

CDXL12

  8  7  0  0  0  0  0  0  0  0999 V2000
    1.0717    1.0312    0.0000 O   0  0  0  0  0  0  0  2  0  0  0  0
    1.0717    0.2062    0.0000 C   0  0  0  0  0  0  0  2  0  0  0  0
    0.3572   -0.2062    0.0000 C   0  0  0  0  0  0  0  2  0  0  0  0
   -0.3572    0.2062    0.0000 C   0  0  0  0  0  0  0  2  0  0  0  0
   -1.0717   -0.2062    0.0000 C   0  0  0  0  0  0  0  2  0  0  0  0
   -1.0717   -1.0312    0.0000 C   0  0  0  0  0  0  0  2  0  0  0  0
   -1.7862    0.2062    0.0000 C   0  0  0  0  0  0  0  2  0  0  0  0
    1.7862   -0.2062    0.0000 C   0  0  0  0  0  0  0  2  0  0  0  0
  1  2  2  0        0
  2  3  1  0        0
  3  4  1  0        0
  4  5  1  0        0
  5  6  1  0        0
  5  7  1  0        0
  2  8  1  0        0
M  END
>  <CAS RN>
110123

>  <SMILES>
O=C(CCC(C)C)C

>  <Measured or Estimated Log10(mmol/L)>
0.9174827

$$$$

CDXL12

  6  5  0  0  0  0  0  0  0  0999 V2000
   -1.7862   -0.2062    0.0000 O   0  0  0  0  0  0  0  2  0  0  0  0
   -1.0717    0.2062    0.0000 C   0  0  0  0  0  0  0  2  0  0  0  0
   -0.3572   -0.2062    0.0000 C   0  0  0  0  0  0  0  2  0  0  0  0
    0.3572    0.2062    0.0000 S   0  0  0  0  0  0  0  2  0  0  0  0
    1.0717   -0.2062    0.0000 C   0  0  0  0  0  0  0  2  0  0  0  0
    1.7862    0.2062    0.0000 C   0  0  0  0  0  0  0  2  0  0  0  0
  1  2  1  0        0
  2  3  1  0        0
  3  4  1  0        0
  4  5  1  0        0
  5  6  1  0        0
M  END
>  <CAS RN>
110770

>  <SMILES>
OCCSCC

>  <Measured or Estimated Log10(mmol/L)>
-0.8649705

$$$$

CDXL12

  6  5  0  0  0  0  0  0  0  0999 V2000
   -0.3572   -0.2062    0.0000 S   0  0  0  0  0  0  0  2  0  0  0  0
    0.3572    0.2062    0.0000 S   0  0  0  0  0  0  0  2  0  0  0  0
    1.0717   -0.2062    0.0000 C   0  0  0  0  0  0  0  2  0  0  0  0
    1.7862    0.2062    0.0000 C   0  0  0  0  0  0  0  2  0  0  0  0
   -1.0717    0.2062    0.0000 C   0  0  0  0  0  0  0  2  0  0  0  0
   -1.7862   -0.2062    0.0000 C   0  0  0  0  0  0  0  2  0  0  0  0
  1  2  1  0        0
  2  3  1  0        0
  3  4  1  0        0
  1  5  1  0        0
  5  6  1  0        0
M  END
>  <CAS RN>
110816

>  <SMILES>
S(SCC)CC

>  <Measured or Estimated Log10(mmol/L)>
-1.2587683

$$$$

CDXL12

  6  6  0  0  0  0  0  0  0  0999 V2000
    0.7145   -0.4125    0.0000 C   0  0  0  0  0  0  0  2  0  0  0  0
    0.0000   -0.8250    0.0000 C   0  0  0  0  0  0  0  2  0  0  0  0
   -0.7145   -0.4125    0.0000 C   0  0  0  0  0  0  0  2  0  0  0  0
   -0.7145    0.4125    0.0000 C   0  0  0  0  0  0  0  2  0  0  0  0
    0.0000    0.8250    0.0000 C   0  0  0  0  0  0  0  2  0  0  0  0
    0.7145    0.4125    0.0000 C   0  0  0  0  0  0  0  2  0  0  0  0
  1  2  1  0        0
  2  3  1  0        0
  3  4  1  0        0
  4  5  1  0        0
  5  6  1  0        0
  1  6  1  0        0
M  END
>  <CAS RN>
110827

>  <SMILES>
C1CCCCC1

>  <Measured or Estimated Log10(mmol/L)>
-1.35

$$$$

CDXL12

  6  6  0  0  0  0  0  0  0  0999 V2000
    0.7145   -0.4125    0.0000 C   0  0  0  0  0  0  0  2  0  0  0  0
    0.0000   -0.8250    0.0000 C   0  0  0  0  0  0  0  2  0  0  0  0
   -0.7145   -0.4125    0.0000 C   0  0  0  0  0  0  0  2  0  0  0  0
   -0.7145    0.4125    0.0000 C   0  0  0  0  0  0  0  2  0  0  0  0
    0.0000    0.8250    0.0000 C   0  0  0  0  0  0  0  2  0  0  0  0
    0.7145    0.4125    0.0000 C   0  0  0  0  0  0  0  2  0  0  0  0
  1  2  2  0        0
  2  3  1  0        0
  3  4  1  0        0
  4  5  1  0        0
  5  6  1  0        0
  1  6  1  0        0
M  END
>  <CAS RN>
110838

>  <SMILES>
C/1=C/CCCC1

>  <Measured or Estimated Log10(mmol/L)>
-0.941458567

$$$$

CDXL12

  6  6  0  0  0  0  0  0  0  0999 V2000
    0.7145   -0.4125    0.0000 N   0  0  0  0  0  0  0  2  0  0  0  0
    0.0000   -0.8250    0.0000 C   0  0  0  0  0  0  0  2  0  0  0  0
   -0.7145   -0.4125    0.0000 C   0  0  0  0  0  0  0  2  0  0  0  0
   -0.7145    0.4125    0.0000 C   0  0  0  0  0  0  0  2  0  0  0  0
    0.0000    0.8250    0.0000 C   0  0  0  0  0  0  0  2  0  0  0  0
    0.7145    0.4125    0.0000 C   0  0  0  0  0  0  0  2  0  0  0  0
  1  2  4  0        0
  2  3  4  0        0
  3  4  4  0        0
  4  5  4  0        0
  5  6  4  0        0
  1  6  4  0        0
M  END
>  <CAS RN>
110861

>  <SMILES>
n1ccccc1

>  <Measured or Estimated Log10(mmol/L)>
1.184597906

$$$$

CDXL12

  6  6  0  0  0  0  0  0  0  0999 V2000
    0.7145   -0.4125    0.0000 O   0  0  0  0  0  0  0  2  0  0  0  0
    0.0000   -0.8250    0.0000 C   0  0  0  0  0  0  0  2  0  0  0  0
   -0.7145   -0.4125    0.0000 C   0  0  0  0  0  0  0  2  0  0  0  0
   -0.7145    0.4125    0.0000 N   0  0  0  0  0  0  0  2  0  0  0  0
    0.0000    0.8250    0.0000 C   0  0  0  0  0  0  0  2  0  0  0  0
    0.7145    0.4125    0.0000 C   0  0  0  0  0  0  0  2  0  0  0  0
  1  2  1  0        0
  2  3  1  0        0
  3  4  1  0        0
  4  5  1  0        0
  5  6  1  0        0
  1  6  1  0        0
M  END
>  <CAS RN>
110918

>  <SMILES>
O1CCNCC1

>  <Measured or Estimated Log10(mmol/L)>
-0.2328214

$$$$

CDXL12

  7  6  0  0  0  0  0  0  0  0999 V2000
   -2.1434   -0.2062    0.0000 O   0  0  0  0  0  0  0  2  0  0  0  0
   -1.4289    0.2062    0.0000 C   0  0  0  0  0  0  0  2  0  0  0  0
   -0.7145   -0.2062    0.0000 C   0  0  0  0  0  0  0  2  0  0  0  0
    0.0000    0.2062    0.0000 C   0  0  0  0  0  0  0  2  0  0  0  0
    0.7145   -0.2062    0.0000 C   0  0  0  0  0  0  0  2  0  0  0  0
    1.4289    0.2062    0.0000 C   0  0  0  0  0  0  0  2  0  0  0  0
    2.1434   -0.2062    0.0000 C   0  0  0  0  0  0  0  2  0  0  0  0
  1  2  1  0        0
  2  3  1  0        0
  3  4  1  0        0
  4  5  1  0        0
  5  6  1  0        0
  6  7  1  0        0
M  END
>  <CAS RN>
111273

>  <SMILES>
OCCCCCC

>  <Measured or Estimated Log10(mmol/L)>
0.0884347

$$$$

CDXL12

  7  6  0  0  0  0  0  0  0  0999 V2000
   -2.1434   -0.2062    0.0000 O   0  0  0  0  0  0  0  2  0  0  0  0
   -1.4289    0.2062    0.0000 C   0  0  0  0  0  0  0  2  0  0  0  0
   -0.7145   -0.2062    0.0000 C   0  0  0  0  0  0  0  2  0  0  0  0
    0.0000    0.2062    0.0000 N   0  0  0  0  0  0  0  2  0  0  0  0
    0.7145   -0.2062    0.0000 C   0  0  0  0  0  0  0  2  0  0  0  0
    1.4289    0.2062    0.0000 C   0  0  0  0  0  0  0  2  0  0  0  0
    2.1434   -0.2062    0.0000 O   0  0  0  0  0  0  0  2  0  0  0  0
  1  2  1  0        0
  2  3  1  0        0
  3  4  1  0        0
  4  5  1  0        0
  5  6  1  0        0
  6  7  1  0        0
M  END
>  <CAS RN>
111422

>  <SMILES>
OCCNCCO

>  <Measured or Estimated Log10(mmol/L)>
0.070965064

$$$$

CDXL12

  7  6  0  0  0  0  0  0  0  0999 V2000
    0.0000    0.2062    0.0000 O   0  0  0  0  0  0  0  2  0  0  0  0
   -0.7145   -0.2062    0.0000 C   0  0  0  0  0  0  0  2  0  0  0  0
   -1.4289    0.2062    0.0000 C   0  0  0  0  0  0  0  2  0  0  0  0
   -2.1434   -0.2062    0.0000 Cl  0  0  0  0  0  0  0  2  0  0  0  0
    0.7145   -0.2062    0.0000 C   0  0  0  0  0  0  0  2  0  0  0  0
    1.4289    0.2062    0.0000 C   0  0  0  0  0  0  0  2  0  0  0  0
    2.1434   -0.2062    0.0000 Cl  0  0  0  0  0  0  0  2  0  0  0  0
  1  2  1  0        0
  2  3  1  0        0
  3  4  1  0        0
  1  5  1  0        0
  5  6  1  0        0
  6  7  1  0        0
M  END
>  <CAS RN>
111444

>  <SMILES>
O(CCCl)CCCl

>  <Measured or Estimated Log10(mmol/L)>
0.224835725

$$$$

CDXL12

  8  7  0  0  0  0  0  0  0  0999 V2000
    1.7862   -0.2062    0.0000 C   0  0  0  0  0  0  0  2  0  0  0  0
    1.0717    0.2062    0.0000 C   0  0  0  0  0  0  0  2  0  0  0  0
    0.3572   -0.2062    0.0000 C   0  0  0  0  0  0  0  2  0  0  0  0
   -0.3572    0.2062    0.0000 C   0  0  0  0  0  0  0  2  0  0  0  0
   -1.0717   -0.2062    0.0000 C   0  0  0  0  0  0  0  2  0  0  0  0
   -1.7862    0.2062    0.0000 C   0  0  0  0  0  0  0  2  0  0  0  0
   -2.5006   -0.2062    0.0000 C   0  0  0  0  0  0  0  2  0  0  0  0
    2.5006    0.2062    0.0000 C   0  0  0  0  0  0  0  2  0  0  0  0
  1  2  1  0        0
  2  3  1  0        0
  3  4  1  0        0
  4  5  1  0        0
  5  6  1  0        0
  6  7  1  0        0
  1  8  1  0        0
M  END
>  <CAS RN>
111659

>  <SMILES>
C(CCCCCC)C

>  <Measured or Estimated Log10(mmol/L)>
-2.48

$$$$

CDXL12

  8  7  0  0  0  0  0  0  0  0999 V2000
    2.5006   -0.6187    0.0000 N   0  0  0  0  0  0  0  2  0  0  0  0
    1.7862   -0.2062    0.0000 C   0  0  0  0  0  0  0  2  0  0  0  0
    1.0717    0.2063    0.0000 C   0  0  0  0  0  0  0  2  0  0  0  0
    0.3572   -0.2062    0.0000 C   0  0  0  0  0  0  0  2  0  0  0  0
   -0.3572    0.2062    0.0000 C   0  0  0  0  0  0  0  2  0  0  0  0
   -1.0717   -0.2062    0.0000 C   0  0  0  0  0  0  0  2  0  0  0  0
   -1.7862    0.2062    0.0000 C   0  0  0  0  0  0  0  2  0  0  0  0
   -2.5006    0.6187    0.0000 N   0  0  0  0  0  0  0  2  0  0  0  0
  1  2  3  0        0
  2  3  1  0        0
  3  4  1  0        0
  4  5  1  0        0
  5  6  1  0        0
  6  7  1  0        0
  7  8  3  0        0
M  END
>  <CAS RN>
111693

>  <SMILES>
N#CCCCCC#N

>  <Measured or Estimated Log10(mmol/L)>
1.06

$$$$

CDXL12

  8  7  0  0  0  0  0  0  0  0999 V2000
    2.5006    0.2062    0.0000 O   0  0  0  0  0  0  0  2  0  0  0  0
    1.7862   -0.2062    0.0000 C   0  0  0  0  0  0  0  2  0  0  0  0
    1.0717    0.2062    0.0000 C   0  0  0  0  0  0  0  2  0  0  0  0
    0.3572   -0.2062    0.0000 C   0  0  0  0  0  0  0  2  0  0  0  0
   -0.3572    0.2062    0.0000 C   0  0  0  0  0  0  0  2  0  0  0  0
   -1.0717   -0.2062    0.0000 C   0  0  0  0  0  0  0  2  0  0  0  0
   -1.7862    0.2062    0.0000 C   0  0  0  0  0  0  0  2  0  0  0  0
   -2.5006   -0.2062    0.0000 C   0  0  0  0  0  0  0  2  0  0  0  0
  1  2  1  0        0
  2  3  1  0        0
  3  4  1  0        0
  4  5  1  0        0
  5  6  1  0        0
  6  7  1  0        0
  7  8  1  0        0
M  END
>  <CAS RN>
111706

>  <SMILES>
OCCCCCCC

>  <Measured or Estimated Log10(mmol/L)>
-0.218883966

$$$$

CDXL12

  8  7  0  0  0  0  0  0  0  0999 V2000
    0.3572   -0.2062    0.0000 O   0  0  0  0  0  0  0  2  0  0  0  0
   -0.3572    0.2062    0.0000 C   0  0  0  0  0  0  0  2  0  0  0  0
   -1.0717   -0.2062    0.0000 C   0  0  0  0  0  0  0  2  0  0  0  0
   -1.7862    0.2062    0.0000 C   0  0  0  0  0  0  0  2  0  0  0  0
   -2.5006   -0.2062    0.0000 C   0  0  0  0  0  0  0  2  0  0  0  0
    1.0717    0.2062    0.0000 C   0  0  0  0  0  0  0  2  0  0  0  0
    1.7862   -0.2062    0.0000 C   0  0  0  0  0  0  0  2  0  0  0  0
    2.5006    0.2062    0.0000 O   0  0  0  0  0  0  0  2  0  0  0  0
  1  2  1  0        0
  2  3  1  0        0
  3  4  1  0        0
  4  5  1  0        0
  1  6  1  0        0
  6  7  1  0        0
  7  8  1  0        0
M  END
>  <CAS RN>
111762

>  <SMILES>
O(CCCC)CCO

>  <Measured or Estimated Log10(mmol/L)>
0.9071196

$$$$

CDXL12

  9  8  0  0  0  0  0  0  0  0999 V2000
   -2.8579   -0.2062    0.0000 O   0  0  0  0  0  0  0  2  0  0  0  0
   -2.1434    0.2062    0.0000 C   0  0  0  0  0  0  0  2  0  0  0  0
   -1.4289   -0.2062    0.0000 C   0  0  0  0  0  0  0  2  0  0  0  0
   -0.7145    0.2062    0.0000 C   0  0  0  0  0  0  0  2  0  0  0  0
    0.0000   -0.2062    0.0000 C   0  0  0  0  0  0  0  2  0  0  0  0
    0.7145    0.2062    0.0000 C   0  0  0  0  0  0  0  2  0  0  0  0
    1.4289   -0.2062    0.0000 C   0  0  0  0  0  0  0  2  0  0  0  0
    2.1434    0.2062    0.0000 C   0  0  0  0  0  0  0  2  0  0  0  0
    2.8579   -0.2062    0.0000 C   0  0  0  0  0  0  0  2  0  0  0  0
  1  2  1  0        0
  2  3  1  0        0
  3  4  1  0        0
  4  5  1  0        0
  5  6  1  0        0
  6  7  1  0        0
  7  8  1  0        0
  8  9  1  0        0
M  END
>  <CAS RN>
111875

>  <SMILES>
OCCCCCCCC

>  <Measured or Estimated Log10(mmol/L)>
-0.7509764

$$$$

CDXL12

  9  8  0  0  0  0  0  0  0  0999 V2000
    0.7145    0.2062    0.0000 O   0  0  0  0  0  0  0  2  0  0  0  0
    0.0000   -0.2062    0.0000 C   0  0  0  0  0  0  0  2  0  0  0  0
   -0.7145    0.2062    0.0000 C   0  0  0  0  0  0  0  2  0  0  0  0
   -1.4289   -0.2062    0.0000 O   0  0  0  0  0  0  0  2  0  0  0  0
   -2.1434    0.2062    0.0000 C   0  0  0  0  0  0  0  2  0  0  0  0
   -2.8579   -0.2062    0.0000 C   0  0  0  0  0  0  0  2  0  0  0  0
    1.4289   -0.2062    0.0000 C   0  0  0  0  0  0  0  2  0  0  0  0
    2.1434    0.2062    0.0000 C   0  0  0  0  0  0  0  2  0  0  0  0
    2.8579   -0.2062    0.0000 O   0  0  0  0  0  0  0  2  0  0  0  0
  1  2  1  0        0
  2  3  1  0        0
  3  4  1  0        0
  4  5  1  0        0
  5  6  1  0        0
  1  7  1  0        0
  7  8  1  0        0
  8  9  1  0        0
M  END
>  <CAS RN>
111900

>  <SMILES>
O(CCOCC)CCO

>  <Measured or Estimated Log10(mmol/L)>
1.474930916

$$$$

CDXL12

  9  8  0  0  0  0  0  0  0  0999 V2000
   -0.7145    0.2062    0.0000 O   0  0  0  0  0  0  0  2  0  0  0  0
   -1.4289   -0.2062    0.0000 C   0  0  0  0  0  0  0  2  0  0  0  0
   -2.1434    0.2062    0.0000 C   0  0  0  0  0  0  0  2  0  0  0  0
   -2.8579   -0.2062    0.0000 Cl  0  0  0  0  0  0  0  2  0  0  0  0
    0.0000   -0.2062    0.0000 C   0  0  0  0  0  0  0  2  0  0  0  0
    0.7145    0.2062    0.0000 O   0  0  0  0  0  0  0  2  0  0  0  0
    1.4289   -0.2062    0.0000 C   0  0  0  0  0  0  0  2  0  0  0  0
    2.1434    0.2062    0.0000 C   0  0  0  0  0  0  0  2  0  0  0  0
    2.8579   -0.2062    0.0000 Cl  0  0  0  0  0  0  0  2  0  0  0  0
  1  2  1  0        0
  2  3  1  0        0
  3  4  1  0        0
  1  5  1  0        0
  5  6  1  0        0
  6  7  1  0        0
  7  8  1  0        0
  8  9  1  0        0
M  END
>  <CAS RN>
111911

>  <SMILES>
O(CCCl)COCCCl

>  <Measured or Estimated Log10(mmol/L)>
0.065052061

$$$$

CDXL12

  9  8  0  0  0  0  0  0  0  0999 V2000
    0.0000   -0.2062    0.0000 N   0  0  0  0  0  0  0  2  0  0  0  0
   -0.7145    0.2062    0.0000 C   0  0  0  0  0  0  0  2  0  0  0  0
   -1.4289   -0.2062    0.0000 C   0  0  0  0  0  0  0  2  0  0  0  0
   -2.1434    0.2062    0.0000 C   0  0  0  0  0  0  0  2  0  0  0  0
   -2.8579   -0.2062    0.0000 C   0  0  0  0  0  0  0  2  0  0  0  0
    0.7145    0.2062    0.0000 C   0  0  0  0  0  0  0  2  0  0  0  0
    1.4289   -0.2062    0.0000 C   0  0  0  0  0  0  0  2  0  0  0  0
    2.1434    0.2062    0.0000 C   0  0  0  0  0  0  0  2  0  0  0  0
    2.8579   -0.2062    0.0000 C   0  0  0  0  0  0  0  2  0  0  0  0
  1  2  1  0        0
  2  3  1  0        0
  3  4  1  0        0
  4  5  1  0        0
  1  6  1  0        0
  6  7  1  0        0
  7  8  1  0        0
  8  9  1  0        0
M  END
>  <CAS RN>
111922

>  <SMILES>
N(CCCC)CCCC

>  <Measured or Estimated Log10(mmol/L)>
-0.398475575

$$$$

CDXL12

 21 20  0  0  0  0  0  0  0  0999 V2000
   -6.1232   -0.0399    0.0000 C   0  0  0  0  0  0  0  2  0  0  0  0
   -5.4087    0.3726    0.0000 C   0  0  0  0  0  0  0  2  0  0  0  0
   -4.6942   -0.0399    0.0000 C   0  0  0  0  0  0  0  2  0  0  0  0
   -3.9798    0.3726    0.0000 C   0  0  0  0  0  0  0  2  0  0  0  0
   -3.2653   -0.0399    0.0000 C   0  0  0  0  0  0  0  2  0  0  0  0
   -2.5508    0.3726    0.0000 C   0  0  0  0  0  0  0  2  0  0  0  0
   -1.8364   -0.0399    0.0000 C   0  0  0  0  0  0  0  2  0  0  0  0
   -1.1219    0.3726    0.0000 C   0  0  0  0  0  0  0  2  0  0  0  0
   -0.4074   -0.0399    0.0000 C   0  0  0  0  0  0  0  2  0  0  0  0
    0.3070    0.3726    0.0000 C   0  0  0  0  0  0  0  2  0  0  0  0
    1.0215   -0.0399    0.0000 C   0  0  0  0  0  0  0  2  0  0  0  0
    1.7360    0.3726    0.0000 C   0  0  0  0  0  0  0  2  0  0  0  0
    2.4505   -0.0399    0.0000 C   0  0  0  0  0  0  0  2  0  0  0  0
    3.1649    0.3726    0.0000 C   0  0  0  0  0  0  0  2  0  0  0  0
    3.8794   -0.0399    0.0000 C   0  0  0  0  0  0  0  2  0  0  0  0
    4.5939    0.3726    0.0000 C   0  0  0  0  0  0  0  2  0  0  0  0
    5.3083   -0.0399    0.0000 N   0  0  0  0  0  0  0  2  0  0  0  0
    4.7250   -0.6232    0.0000 Cl  0  0  0  0  0  0  0  2  0  0  0  0
    5.6829   -0.7750    0.0000 C   0  0  0  0  0  0  0  2  0  0  0  0
    6.1232    0.0892    0.0000 C   0  0  0  0  0  0  0  2  0  0  0  0
    5.4374    0.7750    0.0000 C   0  0  0  0  0  0  0  2  0  0  0  0
  1  2  1  0        0
  2  3  1  0        0
  3  4  1  0        0
  4  5  1  0        0
  5  6  1  0        0
  6  7  1  0        0
  7  8  1  0        0
  8  9  1  0        0
  9 10  1  0        0
 10 11  1  0        0
 11 12  1  0        0
 12 13  1  0        0
 13 14  1  0        0
 14 15  1  0        0
 15 16  1  0        0
 16 17  1  0        0
 17 18  1  0        0
 17 19  1  0        0
 17 20  1  0        0
 17 21  1  0        0
M  END
>  <CAS RN>
112027

>  <SMILES>
CCCCCCCCCCCCCCCCN(Cl)(C)(C)C

>  <Measured or Estimated Log10(mmol/L)>
-4.505156764

$$$$

CDXL12

 10  9  0  0  0  0  0  0  0  0999 V2000
   -1.0717    0.2062    0.0000 O   0  0  0  0  0  0  0  2  0  0  0  0
   -0.3572   -0.2062    0.0000 C   0  0  0  0  0  0  0  2  0  0  0  0
    0.3572    0.2062    0.0000 C   0  0  0  0  0  0  0  2  0  0  0  0
    1.0717   -0.2062    0.0000 O   0  0  0  0  0  0  0  2  0  0  0  0
    1.7862    0.2062    0.0000 C   0  0  0  0  0  0  0  2  0  0  0  0
    2.5006   -0.2062    0.0000 C   0  0  0  0  0  0  0  2  0  0  0  0
    3.2151    0.2062    0.0000 O   0  0  0  0  0  0  0  2  0  0  0  0
   -1.7862   -0.2062    0.0000 C   0  0  0  0  0  0  0  2  0  0  0  0
   -2.5006    0.2062    0.0000 C   0  0  0  0  0  0  0  2  0  0  0  0
   -3.2151   -0.2062    0.0000 O   0  0  0  0  0  0  0  2  0  0  0  0
  1  2  1  0        0
  2  3  1  0        0
  3  4  1  0        0
  4  5  1  0        0
  5  6  1  0        0
  6  7  1  0        0
  1  8  1  0        0
  8  9  1  0        0
  9 10  1  0        0
M  END
>  <CAS RN>
112276

>  <SMILES>
O(CCOCCO)CCO

>  <Measured or Estimated Log10(mmol/L)>
2.540242983

$$$$

CDXL12

 11 10  0  0  0  0  0  0  0  0999 V2000
   -3.5724   -0.2062    0.0000 Br  0  0  0  0  0  0  0  2  0  0  0  0
   -2.8579    0.2062    0.0000 C   0  0  0  0  0  0  0  2  0  0  0  0
   -2.1434   -0.2062    0.0000 C   0  0  0  0  0  0  0  2  0  0  0  0
   -1.4289    0.2062    0.0000 C   0  0  0  0  0  0  0  2  0  0  0  0
   -0.7145   -0.2062    0.0000 C   0  0  0  0  0  0  0  2  0  0  0  0
    0.0000    0.2062    0.0000 C   0  0  0  0  0  0  0  2  0  0  0  0
    0.7145   -0.2062    0.0000 C   0  0  0  0  0  0  0  2  0  0  0  0
    1.4289    0.2062    0.0000 C   0  0  0  0  0  0  0  2  0  0  0  0
    2.1434   -0.2062    0.0000 C   0  0  0  0  0  0  0  2  0  0  0  0
    2.8579    0.2062    0.0000 C   0  0  0  0  0  0  0  2  0  0  0  0
    3.5724   -0.2062    0.0000 C   0  0  0  0  0  0  0  2  0  0  0  0
  1  2  1  0        0
  2  3  1  0        0
  3  4  1  0        0
  4  5  1  0        0
  5  6  1  0        0
  6  7  1  0        0
  7  8  1  0        0
  8  9  1  0        0
  9 10  1  0        0
 10 11  1  0        0
M  END
>  <CAS RN>
112298

>  <SMILES>
BrCCCCCCCCCC

>  <Measured or Estimated Log10(mmol/L)>
-3.48

$$$$

CDXL12

 11 10  0  0  0  0  0  0  0  0999 V2000
   -3.5724   -0.2062    0.0000 O   0  0  0  0  0  0  0  2  0  0  0  0
   -2.8579    0.2062    0.0000 C   0  0  0  0  0  0  0  2  0  0  0  0
   -2.1434   -0.2062    0.0000 C   0  0  0  0  0  0  0  2  0  0  0  0
   -1.4289    0.2062    0.0000 C   0  0  0  0  0  0  0  2  0  0  0  0
   -0.7145   -0.2062    0.0000 C   0  0  0  0  0  0  0  2  0  0  0  0
    0.0000    0.2062    0.0000 C   0  0  0  0  0  0  0  2  0  0  0  0
    0.7145   -0.2062    0.0000 C   0  0  0  0  0  0  0  2  0  0  0  0
    1.4289    0.2062    0.0000 C   0  0  0  0  0  0  0  2  0  0  0  0
    2.1434   -0.2062    0.0000 C   0  0  0  0  0  0  0  2  0  0  0  0
    2.8579    0.2062    0.0000 C   0  0  0  0  0  0  0  2  0  0  0  0
    3.5724   -0.2062    0.0000 C   0  0  0  0  0  0  0  2  0  0  0  0
  1  2  1  0        0
  2  3  1  0        0
  3  4  1  0        0
  4  5  1  0        0
  5  6  1  0        0
  6  7  1  0        0
  7  8  1  0        0
  8  9  1  0        0
  9 10  1  0        0
 10 11  1  0        0
M  END
>  <CAS RN>
112301

>  <SMILES>
OCCCCCCCCCC

>  <Measured or Estimated Log10(mmol/L)>
-1.33131

$$$$

CDXL12

 13 12  0  0  0  0  0  0  0  0999 V2000
   -4.2868   -0.2062    0.0000 Cl  0  0  0  0  0  0  0  2  0  0  0  0
   -3.5724    0.2062    0.0000 C   0  0  0  0  0  0  0  2  0  0  0  0
   -2.8579   -0.2062    0.0000 C   0  0  0  0  0  0  0  2  0  0  0  0
   -2.1434    0.2062    0.0000 C   0  0  0  0  0  0  0  2  0  0  0  0
   -1.4289   -0.2062    0.0000 C   0  0  0  0  0  0  0  2  0  0  0  0
   -0.7145    0.2062    0.0000 C   0  0  0  0  0  0  0  2  0  0  0  0
    0.0000   -0.2062    0.0000 C   0  0  0  0  0  0  0  2  0  0  0  0
    0.7145    0.2062    0.0000 C   0  0  0  0  0  0  0  2  0  0  0  0
    1.4289   -0.2062    0.0000 C   0  0  0  0  0  0  0  2  0  0  0  0
    2.1434    0.2062    0.0000 C   0  0  0  0  0  0  0  2  0  0  0  0
    2.8579   -0.2062    0.0000 C   0  0  0  0  0  0  0  2  0  0  0  0
    3.5724    0.2062    0.0000 C   0  0  0  0  0  0  0  2  0  0  0  0
    4.2868   -0.2062    0.0000 C   0  0  0  0  0  0  0  2  0  0  0  0
  1  2  1  0        0
  2  3  1  0        0
  3  4  1  0        0
  4  5  1  0        0
  5  6  1  0        0
  6  7  1  0        0
  7  8  1  0        0
  8  9  1  0        0
  9 10  1  0        0
 10 11  1  0        0
 11 12  1  0        0
 12 13  1  0        0
M  END
>  <CAS RN>
112527

>  <SMILES>
ClCCCCCCCCCCCC

>  <Measured or Estimated Log10(mmol/L)>
-4.2

$$$$

CDXL12

  6  5  0  0  0  0  0  0  0  0999 V2000
   -1.0717   -0.2063    0.0000 O   0  0  0  0  0  0  0  2  0  0  0  0
   -0.3572   -0.6188    0.0000 C   0  0  0  0  0  0  0  2  0  0  0  0
    0.3572   -0.2062    0.0000 C   0  0  0  0  0  0  0  2  0  0  0  0
    1.0717    0.2062    0.0000 Cl  0  0  0  0  0  0  0  2  0  0  0  0
    0.3572    0.6188    0.0000 Cl  0  0  0  0  0  0  0  2  0  0  0  0
    1.0717   -0.6188    0.0000 Cl  0  0  0  0  0  0  0  2  0  0  0  0
  1  2  1  0        0
  2  3  1  0        0
  3  4  1  0        0
  3  5  1  0        0
  3  6  1  0        0
M  END
>  <CAS RN>
115208

>  <SMILES>
OCC(Cl)(Cl)Cl

>  <Measured or Estimated Log10(mmol/L)>
-0.00410051

$$$$

CDXL12

 19 21  0  0  0  0  0  0  0  0999 V2000
   -2.3878   -0.8250    0.0000 Cl  0  0  0  0  0  0  0  2  0  0  0  0
   -1.6734   -0.4125    0.0000 C   0  0  0  0  0  0  0  2  0  0  0  0
   -1.6734    0.4125    0.0000 C   0  0  0  0  0  0  0  2  0  0  0  0
   -2.3878    0.8250    0.0000 Cl  0  0  0  0  0  0  0  2  0  0  0  0
   -0.9589    0.8250    0.0000 C   0  0  0  0  0  0  0  2  0  0  0  0
   -0.9589    1.6500    0.0000 Cl  0  0  0  0  0  0  0  2  0  0  0  0
   -0.2444    0.4125    0.0000 C   0  0  0  0  0  0  0  2  0  0  0  0
    0.4006    0.9269    0.0000 C   0  0  0  0  0  0  0  2  0  0  0  0
    1.2049    0.7433    0.0000 O   0  0  0  0  0  0  0  2  0  0  0  0
    1.5628   -0.0000    0.0000 S   0  0  0  0  0  0  0  2  0  0  0  0
    2.3878   -0.0000    0.0000 O   0  0  0  0  0  0  0  2  0  0  0  0
    1.2049   -0.7433    0.0000 O   0  0  0  0  0  0  0  2  0  0  0  0
    0.4006   -0.9269    0.0000 C   0  0  0  0  0  0  0  2  0  0  0  0
   -0.2444   -0.4125    0.0000 C   0  0  0  0  0  0  0  2  0  0  0  0
   -0.9589   -0.8250    0.0000 C   0  0  0  0  0  0  0  2  0  0  0  0
   -0.9589   -1.6500    0.0000 Cl  0  0  0  0  0  0  0  2  0  0  0  0
   -1.2954   -0.0000    0.0000 C   0  0  0  0  0  0  0  2  0  0  0  0
   -2.0099    0.4125    0.0000 Cl  0  0  0  0  0  0  0  2  0  0  0  0
   -2.0099   -0.4125    0.0000 Cl  0  0  0  0  0  0  0  2  0  0  0  0
  1  2  1  0        0
  2  3  2  0        0
  3  4  1  0        0
  3  5  1  0        0
  5  6  1  0        0
  5  7  1  0        0
  7  8  1  0        0
  8  9  1  0        0
  9 10  1  0        0
 10 11  2  0        0
 10 12  1  0        0
 12 13  1  0        0
 13 14  1  0        0
  7 14  1  0        0
 14 15  1  0        0
  2 15  1  0        0
 15 16  1  0        0
 15 17  1  0        0
  5 17  1  0        0
 17 18  1  0        0
 17 19  1  0        0
M  END
>  <CAS RN>
115297

>  <SMILES>
Cl\C\1=C(/Cl)\C2(Cl)C3COS(=O)OCC3C1(Cl)C2(Cl)Cl

>  <Measured or Estimated Log10(mmol/L)>
-3.075489333

$$$$

CDXL12

 17 18  0  0  0  0  0  0  0  0999 V2000
    1.9751   -1.2375    0.0000 C   0  0  0  0  0  0  0  2  0  0  0  0
    1.9751   -0.4125    0.0000 C   0  0  0  0  0  0  0  2  0  0  0  0
    2.6896   -0.0000    0.0000 C   0  0  0  0  0  0  0  2  0  0  0  0
    2.6896    0.8250    0.0000 C   0  0  0  0  0  0  0  2  0  0  0  0
    1.9751    1.2375    0.0000 C   0  0  0  0  0  0  0  2  0  0  0  0
    1.2607    0.8250    0.0000 C   0  0  0  0  0  0  0  2  0  0  0  0
    1.2607   -0.0000    0.0000 C   0  0  0  0  0  0  0  2  0  0  0  0
    0.5462   -0.4125    0.0000 O   0  0  0  0  0  0  0  2  0  0  0  0
   -0.1683   -0.0000    0.0000 C   0  0  0  0  0  0  0  2  0  0  0  0
   -0.1683    0.8250    0.0000 O   0  0  0  0  0  0  0  2  0  0  0  0
   -0.8827   -0.4125    0.0000 C   0  0  0  0  0  0  0  2  0  0  0  0
   -1.5972   -0.0000    0.0000 S   0  0  0  0  0  0  0  2  0  0  0  0
   -2.3117   -0.4125    0.0000 C   0  0  0  0  0  0  0  2  0  0  0  0
   -3.0261   -0.8250    0.0000 N   0  0  0  0  0  0  0  2  0  0  0  0
    2.3117    0.4125    0.0000 C   0  0  0  0  0  0  0  2  0  0  0  0
    3.0261    0.8250    0.0000 C   0  0  0  0  0  0  0  2  0  0  0  0
    3.0261   -0.0000    0.0000 C   0  0  0  0  0  0  0  2  0  0  0  0
  1  2  1  0        0
  2  3  1  0        0
  3  4  1  0        0
  4  5  1  0        0
  5  6  1  0        0
  6  7  1  0        0
  2  7  1  0        0
  7  8  1  0        0
  8  9  1  0        0
  9 10  2  0        0
  9 11  1  0        0
 11 12  1  0        0
 12 13  1  0        0
 13 14  3  0        0
  5 15  1  0        0
  2 15  1  0        0
 15 16  1  0        0
 15 17  1  0        0
M  END
>  <CAS RN>
115311

>  <SMILES>
CC12CCC(CC1OC(=O)CSC#N)C2(C)C

>  <Measured or Estimated Log10(mmol/L)>
-3.449502397

$$$$

CDXL12

 20 21  0  0  0  0  0  0  0  0999 V2000
   -0.7145    0.4125    0.0000 O   0  0  0  0  0  0  0  2  0  0  0  0
   -0.0000    0.0000    0.0000 C   0  0  0  0  0  0  0  2  0  0  0  0
    0.7145   -0.4125    0.0000 C   0  0  0  0  0  0  0  2  0  0  0  0
    1.4289   -0.0000    0.0000 C   0  0  0  0  0  0  0  2  0  0  0  0
    2.1434   -0.4125    0.0000 C   0  0  0  0  0  0  0  2  0  0  0  0
    2.1434   -1.2375    0.0000 C   0  0  0  0  0  0  0  2  0  0  0  0
    2.8579   -1.6500    0.0000 Cl  0  0  0  0  0  0  0  2  0  0  0  0
    1.4289   -1.6500    0.0000 C   0  0  0  0  0  0  0  2  0  0  0  0
    0.7145   -1.2375    0.0000 C   0  0  0  0  0  0  0  2  0  0  0  0
   -0.7145   -0.4125    0.0000 C   0  0  0  0  0  0  0  2  0  0  0  0
   -0.7145   -1.2375    0.0000 C   0  0  0  0  0  0  0  2  0  0  0  0
   -1.4289   -1.6500    0.0000 C   0  0  0  0  0  0  0  2  0  0  0  0
   -2.1434   -1.2375    0.0000 C   0  0  0  0  0  0  0  2  0  0  0  0
   -2.8579   -1.6500    0.0000 Cl  0  0  0  0  0  0  0  2  0  0  0  0
   -2.1434   -0.4125    0.0000 C   0  0  0  0  0  0  0  2  0  0  0  0
   -1.4289    0.0000    0.0000 C   0  0  0  0  0  0  0  2  0  0  0  0
   -0.0000    0.8250    0.0000 C   0  0  0  0  0  0  0  2  0  0  0  0
   -0.7145    1.2375    0.0000 Cl  0  0  0  0  0  0  0  2  0  0  0  0
    0.7145    1.2375    0.0000 Cl  0  0  0  0  0  0  0  2  0  0  0  0
   -0.0000    1.6500    0.0000 Cl  0  0  0  0  0  0  0  2  0  0  0  0
  1  2  1  0        0
  2  3  1  0        0
  3  4  4  0        0
  4  5  4  0        0
  5  6  4  0        0
  6  7  1  0        0
  6  8  4  0        0
  8  9  4  0        0
  3  9  4  0        0
  2 10  1  0        0
 10 11  4  0        0
 11 12  4  0        0
 12 13  4  0        0
 13 14  1  0        0
 13 15  4  0        0
 15 16  4  0        0
 10 16  4  0        0
  2 17  1  0        0
 17 18  1  0        0
 17 19  1  0        0
 17 20  1  0        0
M  END
>  <CAS RN>
115322

>  <SMILES>
OC(c1ccc(Cl)cc1)(c1ccc(Cl)cc1)C(Cl)(Cl)Cl

>  <Measured or Estimated Log10(mmol/L)>
-3.380832602

$$$$

CDXL12

 23 25  0  0  0  0  0  0  0  0999 V2000
    0.0000   -1.4438    0.0000 O   0  0  0  0  0  0  0  2  0  0  0  0
    0.0000   -0.6188    0.0000 P   0  0  0  0  0  0  0  2  0  0  0  0
   -0.7145   -0.2062    0.0000 O   0  0  0  0  0  0  0  2  0  0  0  0
   -1.4289   -0.6187    0.0000 C   0  0  0  0  0  0  0  2  0  0  0  0
   -1.4289   -1.4437    0.0000 C   0  0  0  0  0  0  0  2  0  0  0  0
   -2.1434   -1.8563    0.0000 C   0  0  0  0  0  0  0  2  0  0  0  0
   -2.8579   -1.4438    0.0000 C   0  0  0  0  0  0  0  2  0  0  0  0
   -2.8579   -0.6188    0.0000 C   0  0  0  0  0  0  0  2  0  0  0  0
   -2.1434   -0.2062    0.0000 C   0  0  0  0  0  0  0  2  0  0  0  0
    0.7145   -0.2062    0.0000 O   0  0  0  0  0  0  0  2  0  0  0  0
    1.4289   -0.6188    0.0000 C   0  0  0  0  0  0  0  2  0  0  0  0
    2.1434   -0.2062    0.0000 C   0  0  0  0  0  0  0  2  0  0  0  0
    2.8579   -0.6188    0.0000 C   0  0  0  0  0  0  0  2  0  0  0  0
    2.8579   -1.4438    0.0000 C   0  0  0  0  0  0  0  2  0  0  0  0
    2.1434   -1.8563    0.0000 C   0  0  0  0  0  0  0  2  0  0  0  0
    1.4289   -1.4438    0.0000 C   0  0  0  0  0  0  0  2  0  0  0  0
    0.0000    0.2062    0.0000 O   0  0  0  0  0  0  0  2  0  0  0  0
   -0.7145    0.6188    0.0000 C   0  0  0  0  0  0  0  2  0  0  0  0
   -1.4289    0.2062    0.0000 C   0  0  0  0  0  0  0  2  0  0  0  0
   -2.1434    0.6188    0.0000 C   0  0  0  0  0  0  0  2  0  0  0  0
   -2.1434    1.4438    0.0000 C   0  0  0  0  0  0  0  2  0  0  0  0
   -1.4289    1.8563    0.0000 C   0  0  0  0  0  0  0  2  0  0  0  0
   -0.7145    1.4438    0.0000 C   0  0  0  0  0  0  0  2  0  0  0  0
  1  2  2  0        0
  2  3  1  0        0
  3  4  1  0        0
  4  5  4  0        0
  5  6  4  0        0
  6  7  4  0        0
  7  8  4  0        0
  8  9  4  0        0
  4  9  4  0        0
  2 10  1  0        0
 10 11  1  0        0
 11 12  4  0        0
 12 13  4  0        0
 13 14  4  0        0
 14 15  4  0        0
 15 16  4  0        0
 11 16  4  0        0
  2 17  1  0        0
 17 18  1  0        0
 18 19  4  0        0
 19 20  4  0        0
 20 21  4  0        0
 21 22  4  0        0
 22 23  4  0        0
 18 23  4  0        0
M  END
>  <CAS RN>
115866

>  <SMILES>
O=P(Oc1ccccc1)(Oc1ccccc1)Oc1ccccc1

>  <Measured or Estimated Log10(mmol/L)>
-2.51

$$$$

CDXL12

 19 20  0  0  0  0  0  0  0  0999 V2000
    2.8579    1.6500    0.0000 Cl  0  0  0  0  0  0  0  2  0  0  0  0
    2.1434    1.2375    0.0000 C   0  0  0  0  0  0  0  2  0  0  0  0
    2.1434    0.4125    0.0000 C   0  0  0  0  0  0  0  2  0  0  0  0
    1.4289   -0.0000    0.0000 C   0  0  0  0  0  0  0  2  0  0  0  0
    0.7145    0.4125    0.0000 C   0  0  0  0  0  0  0  2  0  0  0  0
    0.7145    1.2375    0.0000 C   0  0  0  0  0  0  0  2  0  0  0  0
    1.4289    1.6500    0.0000 C   0  0  0  0  0  0  0  2  0  0  0  0
   -0.0000    0.0000    0.0000 S   0  0  0  0  0  0  0  2  0  0  0  0
    0.4125   -0.7145    0.0000 O   0  0  0  0  0  0  0  2  0  0  0  0
   -0.4125    0.7145    0.0000 O   0  0  0  0  0  0  0  2  0  0  0  0
   -0.7145   -0.4125    0.0000 C   0  0  0  0  0  0  0  2  0  0  0  0
   -1.4289    0.0000    0.0000 C   0  0  0  0  0  0  0  2  0  0  0  0
   -2.1434   -0.4125    0.0000 C   0  0  0  0  0  0  0  2  0  0  0  0
   -2.8579   -0.0000    0.0000 Cl  0  0  0  0  0  0  0  2  0  0  0  0
   -2.1434   -1.2375    0.0000 C   0  0  0  0  0  0  0  2  0  0  0  0
   -2.8579   -1.6500    0.0000 Cl  0  0  0  0  0  0  0  2  0  0  0  0
   -1.4289   -1.6500    0.0000 C   0  0  0  0  0  0  0  2  0  0  0  0
   -0.7145   -1.2375    0.0000 C   0  0  0  0  0  0  0  2  0  0  0  0
   -0.0000   -1.6500    0.0000 Cl  0  0  0  0  0  0  0  2  0  0  0  0
  1  2  1  0        0
  2  3  4  0        0
  3  4  4  0        0
  4  5  4  0        0
  5  6  4  0        0
  6  7  4  0        0
  2  7  4  0        0
  5  8  1  0        0
  8  9  2  0        0
  8 10  2  0        0
  8 11  1  0        0
 11 12  4  0        0
 12 13  4  0        0
 13 14  1  0        0
 13 15  4  0        0
 15 16  1  0        0
 15 17  4  0        0
 17 18  4  0        0
 11 18  4  0        0
 18 19  1  0        0
M  END
>  <CAS RN>
116290

>  <SMILES>
Clc1ccc(cc1)S(=O)(=O)c1cc(Cl)c(Cl)cc1Cl

>  <Measured or Estimated Log10(mmol/L)>
-1.955299053

$$$$

CDXL12

 14 15  0  0  0  0  0  0  0  0999 V2000
   -1.7862   -0.4125    0.0000 C   0  0  0  0  0  0  0  2  0  0  0  0
   -1.7862    0.4125    0.0000 C   0  0  0  0  0  0  0  2  0  0  0  0
   -1.0717    0.8250    0.0000 C   0  0  0  0  0  0  0  2  0  0  0  0
   -0.3572    0.4125    0.0000 C   0  0  0  0  0  0  0  2  0  0  0  0
    0.3572    0.8250    0.0000 C   0  0  0  0  0  0  0  2  0  0  0  0
    0.3572    1.6500    0.0000 O   0  0  0  0  0  0  0  2  0  0  0  0
    1.0717    0.4125    0.0000 C   0  0  0  0  0  0  0  2  0  0  0  0
    1.7862    0.8250    0.0000 Cl  0  0  0  0  0  0  0  2  0  0  0  0
    1.0717   -0.4125    0.0000 C   0  0  0  0  0  0  0  2  0  0  0  0
    1.7862   -0.8250    0.0000 Cl  0  0  0  0  0  0  0  2  0  0  0  0
    0.3572   -0.8250    0.0000 C   0  0  0  0  0  0  0  2  0  0  0  0
    0.3572   -1.6500    0.0000 O   0  0  0  0  0  0  0  2  0  0  0  0
   -0.3572   -0.4125    0.0000 C   0  0  0  0  0  0  0  2  0  0  0  0
   -1.0717   -0.8250    0.0000 C   0  0  0  0  0  0  0  2  0  0  0  0
  1  2  4  0        0
  2  3  4  0        0
  3  4  4  0        0
  4  5  1  0        0
  5  6  2  0        0
  5  7  1  0        0
  7  8  1  0        0
  7  9  2  0        0
  9 10  1  0        0
  9 11  1  0        0
 11 12  2  0        0
 11 13  1  0        0
  4 13  4  0        0
 13 14  4  0        0
  1 14  4  0        0
M  END
>  <CAS RN>
117806

>  <SMILES>
c1ccc2C(=O)/C(/Cl)=C(/Cl)\C(=O)c2c1

>  <Measured or Estimated Log10(mmol/L)>
-4.379243319

$$$$

CDXL12

 28 28  0  0  0  0  0  0  0  0999 V2000
   -1.4289   -3.5063    0.0000 O   0  0  0  0  0  0  0  2  0  0  0  0
   -1.4289   -2.6812    0.0000 C   0  0  0  0  0  0  0  2  0  0  0  0
   -0.7145   -2.2687    0.0000 O   0  0  0  0  0  0  0  2  0  0  0  0
   -0.0000   -2.6812    0.0000 C   0  0  0  0  0  0  0  2  0  0  0  0
    0.7145   -2.2688    0.0000 C   0  0  0  0  0  0  0  2  0  0  0  0
    1.4289   -2.6812    0.0000 C   0  0  0  0  0  0  0  2  0  0  0  0
    2.1434   -2.2688    0.0000 C   0  0  0  0  0  0  0  2  0  0  0  0
    2.8579   -2.6812    0.0000 C   0  0  0  0  0  0  0  2  0  0  0  0
    3.5724   -2.2688    0.0000 C   0  0  0  0  0  0  0  2  0  0  0  0
    0.7145   -1.4438    0.0000 C   0  0  0  0  0  0  0  2  0  0  0  0
    1.4289   -1.0313    0.0000 C   0  0  0  0  0  0  0  2  0  0  0  0
   -2.1434   -2.2687    0.0000 C   0  0  0  0  0  0  0  2  0  0  0  0
   -2.1434   -1.4438    0.0000 C   0  0  0  0  0  0  0  2  0  0  0  0
   -2.8579   -1.0313    0.0000 C   0  0  0  0  0  0  0  2  0  0  0  0
   -3.5724   -1.4438    0.0000 C   0  0  0  0  0  0  0  2  0  0  0  0
   -3.5724   -2.2687    0.0000 C   0  0  0  0  0  0  0  2  0  0  0  0
   -2.8579   -2.6812    0.0000 C   0  0  0  0  0  0  0  2  0  0  0  0
   -1.4289   -1.0313    0.0000 C   0  0  0  0  0  0  0  2  0  0  0  0
   -0.7145   -1.4438    0.0000 O   0  0  0  0  0  0  0  2  0  0  0  0
   -1.4289   -0.2062    0.0000 O   0  0  0  0  0  0  0  2  0  0  0  0
   -0.7145    0.2062    0.0000 C   0  0  0  0  0  0  0  2  0  0  0  0
   -0.7145    1.0313    0.0000 C   0  0  0  0  0  0  0  2  0  0  0  0
   -0.0000    1.4438    0.0000 C   0  0  0  0  0  0  0  2  0  0  0  0
   -0.0000    2.2687    0.0000 C   0  0  0  0  0  0  0  2  0  0  0  0
    0.7145    2.6812    0.0000 C   0  0  0  0  0  0  0  2  0  0  0  0
    0.7145    3.5063    0.0000 C   0  0  0  0  0  0  0  2  0  0  0  0
   -1.4289    1.4438    0.0000 C   0  0  0  0  0  0  0  2  0  0  0  0
   -2.1434    1.0312    0.0000 C   0  0  0  0  0  0  0  2  0  0  0  0
  1  2  2  0        0
  2  3  1  0        0
  3  4  1  0        0
  4  5  1  0        0
  5  6  1  0        0
  6  7  1  0        0
  7  8  1  0        0
  8  9  1  0        0
  5 10  1  0        0
 10 11  1  0        0
  2 12  1  0        0
 12 13  4  0        0
 13 14  4  0        0
 14 15  4  0        0
 15 16  4  0        0
 16 17  4  0        0
 12 17  4  0        0
 13 18  1  0        0
 18 19  2  0        0
 18 20  1  0        0
 20 21  1  0        0
 21 22  1  0        0
 22 23  1  0        0
 23 24  1  0        0
 24 25  1  0        0
 25 26  1  0        0
 22 27  1  0        0
 27 28  1  0        0
M  END
>  <CAS RN>
117817

>  <SMILES>
O=C(OCC(CCCC)CC)c1c(cccc1)C(=O)OCC(CCCC)CC

>  <Measured or Estimated Log10(mmol/L)>
-1.550299525

$$$$

CDXL12

 28 28  0  0  0  0  0  0  0  0999 V2000
   -2.1434   -1.6500    0.0000 O   0  0  0  0  0  0  0  2  0  0  0  0
   -2.1434   -0.8250    0.0000 C   0  0  0  0  0  0  0  2  0  0  0  0
   -1.4289   -0.4125    0.0000 O   0  0  0  0  0  0  0  2  0  0  0  0
   -0.7145   -0.8250    0.0000 C   0  0  0  0  0  0  0  2  0  0  0  0
   -0.0000   -0.4125    0.0000 C   0  0  0  0  0  0  0  2  0  0  0  0
    0.7145   -0.8250    0.0000 C   0  0  0  0  0  0  0  2  0  0  0  0
    1.4289   -0.4125    0.0000 C   0  0  0  0  0  0  0  2  0  0  0  0
    2.1434   -0.8250    0.0000 C   0  0  0  0  0  0  0  2  0  0  0  0
    2.8579   -0.4125    0.0000 C   0  0  0  0  0  0  0  2  0  0  0  0
    3.5724   -0.8250    0.0000 C   0  0  0  0  0  0  0  2  0  0  0  0
    4.2868   -0.4125    0.0000 C   0  0  0  0  0  0  0  2  0  0  0  0
   -2.8579   -0.4125    0.0000 C   0  0  0  0  0  0  0  2  0  0  0  0
   -2.8579    0.4125    0.0000 C   0  0  0  0  0  0  0  2  0  0  0  0
   -3.5724    0.8250    0.0000 C   0  0  0  0  0  0  0  2  0  0  0  0
   -4.2868    0.4125    0.0000 C   0  0  0  0  0  0  0  2  0  0  0  0
   -4.2868   -0.4125    0.0000 C   0  0  0  0  0  0  0  2  0  0  0  0
   -3.5724   -0.8250    0.0000 C   0  0  0  0  0  0  0  2  0  0  0  0
   -2.1434    0.8250    0.0000 C   0  0  0  0  0  0  0  2  0  0  0  0
   -2.1434    1.6500    0.0000 O   0  0  0  0  0  0  0  2  0  0  0  0
   -1.4289    0.4125    0.0000 O   0  0  0  0  0  0  0  2  0  0  0  0
   -0.7145    0.8250    0.0000 C   0  0  0  0  0  0  0  2  0  0  0  0
   -0.0000    0.4125    0.0000 C   0  0  0  0  0  0  0  2  0  0  0  0
    0.7145    0.8250    0.0000 C   0  0  0  0  0  0  0  2  0  0  0  0
    1.4289    0.4125    0.0000 C   0  0  0  0  0  0  0  2  0  0  0  0
    2.1434    0.8250    0.0000 C   0  0  0  0  0  0  0  2  0  0  0  0
    2.8579    0.4125    0.0000 C   0  0  0  0  0  0  0  2  0  0  0  0
    3.5724    0.8250    0.0000 C   0  0  0  0  0  0  0  2  0  0  0  0
    4.2868    0.4125    0.0000 C   0  0  0  0  0  0  0  2  0  0  0  0
  1  2  2  0        0
  2  3  1  0        0
  3  4  1  0        0
  4  5  1  0        0
  5  6  1  0        0
  6  7  1  0        0
  7  8  1  0        0
  8  9  1  0        0
  9 10  1  0        0
 10 11  1  0        0
  2 12  1  0        0
 12 13  4  0        0
 13 14  4  0        0
 14 15  4  0        0
 15 16  4  0        0
 16 17  4  0        0
 12 17  4  0        0
 13 18  1  0        0
 18 19  2  0        0
 18 20  1  0        0
 20 21  1  0        0
 21 22  1  0        0
 22 23  1  0        0
 23 24  1  0        0
 24 25  1  0        0
 25 26  1  0        0
 26 27  1  0        0
 27 28  1  0        0
M  END
>  <CAS RN>
117840

>  <SMILES>
O=C(OCCCCCCCC)c1c(cccc1)C(=O)OCCCCCCCC

>  <Measured or Estimated Log10(mmol/L)>
-1.07317826

$$$$

CDXL12

 12 12  0  0  0  0  0  0  0  0999 V2000
    0.7145   -0.4125    0.0000 C   0  0  0  0  0  0  0  2  0  0  0  0
    0.0000   -0.8250    0.0000 C   0  0  0  0  0  0  0  2  0  0  0  0
   -0.7145   -0.4125    0.0000 C   0  0  0  0  0  0  0  2  0  0  0  0
   -0.7145    0.4125    0.0000 C   0  0  0  0  0  0  0  2  0  0  0  0
    0.0000    0.8250    0.0000 C   0  0  0  0  0  0  0  2  0  0  0  0
    0.0000    1.6500    0.0000 Cl  0  0  0  0  0  0  0  2  0  0  0  0
    0.7145    0.4125    0.0000 C   0  0  0  0  0  0  0  2  0  0  0  0
    1.4289    0.8250    0.0000 Cl  0  0  0  0  0  0  0  2  0  0  0  0
   -1.4289    0.8250    0.0000 Cl  0  0  0  0  0  0  0  2  0  0  0  0
   -1.4289   -0.8250    0.0000 Cl  0  0  0  0  0  0  0  2  0  0  0  0
    0.0000   -1.6500    0.0000 Cl  0  0  0  0  0  0  0  2  0  0  0  0
    1.4289   -0.8250    0.0000 Cl  0  0  0  0  0  0  0  2  0  0  0  0
  1  2  4  0        0
  2  3  4  0        0
  3  4  4  0        0
  4  5  4  0        0
  5  6  1  0        0
  5  7  4  0        0
  1  7  4  0        0
  7  8  1  0        0
  4  9  1  0        0
  3 10  1  0        0
  2 11  1  0        0
  1 12  1  0        0
M  END
>  <CAS RN>
118741

>  <SMILES>
c1(c(c(c(c(Cl)c1Cl)Cl)Cl)Cl)Cl

>  <Measured or Estimated Log10(mmol/L)>
-4.127938364

$$$$

CDXL12

 10 10  0  0  0  0  0  0  0  0999 V2000
    1.4289    0.4125    0.0000 O   0  0  0  0  0  0  0  2  0  0  0  0
    0.7145    0.0000    0.0000 C   0  0  0  0  0  0  0  2  0  0  0  0
    0.7145   -0.8250    0.0000 C   0  0  0  0  0  0  0  2  0  0  0  0
    0.0000   -1.2375    0.0000 C   0  0  0  0  0  0  0  2  0  0  0  0
   -0.7145   -0.8250    0.0000 C   0  0  0  0  0  0  0  2  0  0  0  0
   -0.7145    0.0000    0.0000 C   0  0  0  0  0  0  0  2  0  0  0  0
    0.0000    0.4125    0.0000 C   0  0  0  0  0  0  0  2  0  0  0  0
    0.0000    1.2375    0.0000 Br  0  0  0  0  0  0  0  2  0  0  0  0
   -1.4289   -1.2375    0.0000 Br  0  0  0  0  0  0  0  2  0  0  0  0
    1.4289   -1.2375    0.0000 Br  0  0  0  0  0  0  0  2  0  0  0  0
  1  2  1  0        0
  2  3  4  0        0
  3  4  4  0        0
  4  5  4  0        0
  5  6  4  0        0
  6  7  4  0        0
  2  7  4  0        0
  7  8  1  0        0
  5  9  1  0        0
  3 10  1  0        0
M  END
>  <CAS RN>
118796

>  <SMILES>
Oc1c(cc(cc1Br)Br)Br

>  <Measured or Estimated Log10(mmol/L)>
-2.41

$$$$

CDXL12

 10 10  0  0  0  0  0  0  0  0999 V2000
    0.7145    1.2375    0.0000 O   0  0  0  0  0  0  0  2  0  0  0  0
    0.7145    0.4125    0.0000 C   0  0  0  0  0  0  0  2  0  0  0  0
    1.4289   -0.0000    0.0000 O   0  0  0  0  0  0  0  2  0  0  0  0
    0.0000   -0.0000    0.0000 C   0  0  0  0  0  0  0  2  0  0  0  0
    0.0000   -0.8250    0.0000 C   0  0  0  0  0  0  0  2  0  0  0  0
    0.7145   -1.2375    0.0000 N   0  0  0  0  0  0  0  2  0  0  0  0
   -0.7145   -1.2375    0.0000 C   0  0  0  0  0  0  0  2  0  0  0  0
   -1.4289   -0.8250    0.0000 C   0  0  0  0  0  0  0  2  0  0  0  0
   -1.4289    0.0000    0.0000 C   0  0  0  0  0  0  0  2  0  0  0  0
   -0.7145    0.4125    0.0000 C   0  0  0  0  0  0  0  2  0  0  0  0
  1  2  2  0        0
  2  3  1  0        0
  2  4  1  0        0
  4  5  4  0        0
  5  6  1  0        0
  5  7  4  0        0
  7  8  4  0        0
  8  9  4  0        0
  9 10  4  0        0
  4 10  4  0        0
M  END
>  <CAS RN>
118923

>  <SMILES>
O=C(O)c1c(N)cccc1

>  <Measured or Estimated Log10(mmol/L)>
-0.781759832

$$$$

CDXL12

 16 16  0  0  0  0  0  0  0  0999 V2000
   -1.4289    1.0313    0.0000 C   0  0  0  0  0  0  0  2  0  0  0  0
   -1.4289    1.8563    0.0000 C   0  0  0  0  0  0  0  2  0  0  0  0
   -2.1434    0.6188    0.0000 C   0  0  0  0  0  0  0  2  0  0  0  0
   -0.7145    0.6188    0.0000 C   0  0  0  0  0  0  0  2  0  0  0  0
    0.0000    1.0313    0.0000 C   0  0  0  0  0  0  0  2  0  0  0  0
    0.7145    0.6187    0.0000 C   0  0  0  0  0  0  0  2  0  0  0  0
    0.7145   -0.2063    0.0000 C   0  0  0  0  0  0  0  2  0  0  0  0
    0.0000   -0.6188    0.0000 C   0  0  0  0  0  0  0  2  0  0  0  0
    0.0000   -1.4438    0.0000 N   0  0  0  0  0  0  0  2  0  0  0  0
    0.7145   -1.8563    0.0000 O   0  0  0  0  0  0  0  2  0  0  0  0
   -0.7145   -1.8562    0.0000 O   0  0  0  0  0  0  0  2  0  0  0  0
   -0.7145   -0.2062    0.0000 C   0  0  0  0  0  0  0  2  0  0  0  0
   -1.4289   -0.6188    0.0000 O   0  0  0  0  0  0  0  2  0  0  0  0
    1.4289    1.0312    0.0000 N   0  0  0  0  0  0  0  2  0  0  0  0
    1.4289    1.8562    0.0000 O   0  0  0  0  0  0  0  2  0  0  0  0
    2.1434    0.6187    0.0000 O   0  0  0  0  0  0  0  2  0  0  0  0
  1  2  1  0        0
  1  3  1  0        0
  1  4  1  0        0
  4  5  4  0        0
  5  6  4  0        0
  6  7  4  0        0
  7  8  4  0        0
  8  9  1  0        0
  9 10  2  0        0
  9 11  2  0        0
  8 12  4  0        0
  4 12  4  0        0
 12 13  1  0        0
  6 14  1  0        0
 14 15  2  0        0
 14 16  2  0        0
M  END
>  <CAS RN>
118956

>  <SMILES>
C(C)(C)c1cc(cc(N(=O)=O)c1O)N(=O)=O

>  <Measured or Estimated Log10(mmol/L)>
-1.62367591

$$$$

CDXL12

 11 11  0  0  0  0  0  0  0  0999 V2000
   -1.0717    1.2375    0.0000 O   0  0  0  0  0  0  0  2  0  0  0  0
   -1.0717    0.4125    0.0000 N   0  0  0  0  0  0  0  2  0  0  0  0
   -1.7862   -0.0000    0.0000 O   0  0  0  0  0  0  0  2  0  0  0  0
   -0.3572   -0.0000    0.0000 C   0  0  0  0  0  0  0  2  0  0  0  0
   -0.3572   -0.8250    0.0000 C   0  0  0  0  0  0  0  2  0  0  0  0
   -1.0717   -1.2375    0.0000 O   0  0  0  0  0  0  0  2  0  0  0  0
    0.3572   -1.2375    0.0000 C   0  0  0  0  0  0  0  2  0  0  0  0
    1.0717   -0.8250    0.0000 C   0  0  0  0  0  0  0  2  0  0  0  0
    1.0717    0.0000    0.0000 C   0  0  0  0  0  0  0  2  0  0  0  0
    1.7862    0.4125    0.0000 C   0  0  0  0  0  0  0  2  0  0  0  0
    0.3572    0.4125    0.0000 C   0  0  0  0  0  0  0  2  0  0  0  0
  1  2  2  0        0
  2  3  2  0        0
  2  4  1  0        0
  4  5  4  0        0
  5  6  1  0        0
  5  7  4  0        0
  7  8  4  0        0
  8  9  4  0        0
  9 10  1  0        0
  9 11  4  0        0
  4 11  4  0        0
M  END
>  <CAS RN>
119335

>  <SMILES>
O=N(=O)c1c(O)ccc(C)c1

>  <Measured or Estimated Log10(mmol/L)>
-1.0307801

$$$$

CDXL12

 15 15  0  0  0  0  0  0  0  0999 V2000
    2.2839   -1.4230    0.0000 C   0  0  0  0  0  0  0  2  0  0  0  0
    1.4992   -1.1681    0.0000 C   0  0  0  0  0  0  0  2  0  0  0  0
    0.8861   -1.7201    0.0000 C   0  0  0  0  0  0  0  2  0  0  0  0
    1.3277   -0.3611    0.0000 N   0  0  0  0  0  0  0  2  0  0  0  0
    1.8797    0.2520    0.0000 N   0  0  0  0  0  0  0  2  0  0  0  0
    1.4672    0.9664    0.0000 C   0  0  0  0  0  0  0  2  0  0  0  0
    1.8028    1.7201    0.0000 C   0  0  0  0  0  0  0  2  0  0  0  0
    0.6603    0.7949    0.0000 C   0  0  0  0  0  0  0  2  0  0  0  0
    0.5740   -0.0256    0.0000 C   0  0  0  0  0  0  0  2  0  0  0  0
   -0.1404   -0.4381    0.0000 O   0  0  0  0  0  0  0  2  0  0  0  0
   -0.8549   -0.0256    0.0000 C   0  0  0  0  0  0  0  2  0  0  0  0
   -0.8549    0.7994    0.0000 O   0  0  0  0  0  0  0  2  0  0  0  0
   -1.5694   -0.4381    0.0000 N   0  0  0  0  0  0  0  2  0  0  0  0
   -1.5694   -1.2631    0.0000 C   0  0  0  0  0  0  0  2  0  0  0  0
   -2.2839   -0.0256    0.0000 C   0  0  0  0  0  0  0  2  0  0  0  0
  1  2  1  0        0
  2  3  1  0        0
  2  4  1  0        0
  4  5  4  0        0
  5  6  4  0        0
  6  7  1  0        0
  6  8  4  0        0
  8  9  4  0        0
  4  9  4  0        0
  9 10  1  0        0
 10 11  1  0        0
 11 12  2  0        0
 11 13  1  0        0
 13 14  1  0        0
 13 15  1  0        0
M  END
>  <CAS RN>
119380

>  <SMILES>
CC(C)n1nc(C)cc1OC(=O)N(C)C

>  <Measured or Estimated Log10(mmol/L)>
-4.676433227

$$$$

CDXL12

 14 15  0  0  0  0  0  0  0  0999 V2000
    0.0000    1.2375    0.0000 O   0  0  0  0  0  0  0  2  0  0  0  0
    0.0000    0.4125    0.0000 C   0  0  0  0  0  0  0  2  0  0  0  0
   -0.7145    0.0000    0.0000 C   0  0  0  0  0  0  0  2  0  0  0  0
   -0.7145   -0.8250    0.0000 C   0  0  0  0  0  0  0  2  0  0  0  0
   -1.4289   -1.2375    0.0000 C   0  0  0  0  0  0  0  2  0  0  0  0
   -2.1434   -0.8250    0.0000 C   0  0  0  0  0  0  0  2  0  0  0  0
   -2.1434    0.0000    0.0000 C   0  0  0  0  0  0  0  2  0  0  0  0
   -1.4289    0.4125    0.0000 C   0  0  0  0  0  0  0  2  0  0  0  0
    0.7145   -0.0000    0.0000 C   0  0  0  0  0  0  0  2  0  0  0  0
    1.4289    0.4125    0.0000 C   0  0  0  0  0  0  0  2  0  0  0  0
    2.1434    0.0000    0.0000 C   0  0  0  0  0  0  0  2  0  0  0  0
    2.1434   -0.8250    0.0000 C   0  0  0  0  0  0  0  2  0  0  0  0
    1.4289   -1.2375    0.0000 C   0  0  0  0  0  0  0  2  0  0  0  0
    0.7145   -0.8250    0.0000 C   0  0  0  0  0  0  0  2  0  0  0  0
  1  2  2  0        0
  2  3  1  0        0
  3  4  4  0        0
  4  5  4  0        0
  5  6  4  0        0
  6  7  4  0        0
  7  8  4  0        0
  3  8  4  0        0
  2  9  1  0        0
  9 10  4  0        0
 10 11  4  0        0
 11 12  4  0        0
 12 13  4  0        0
 13 14  4  0        0
  9 14  4  0        0
M  END
>  <CAS RN>
119619

>  <SMILES>
O=C(c1ccccc1)c1ccccc1

>  <Measured or Estimated Log10(mmol/L)>
-3.2070311

$$$$

CDXL12

 10 11  0  0  0  0  0  0  0  0999 V2000
    1.4289    0.4125    0.0000 N   0  0  0  0  0  0  0  2  0  0  0  0
    1.4289   -0.4125    0.0000 C   0  0  0  0  0  0  0  2  0  0  0  0
    0.7145   -0.8250    0.0000 C   0  0  0  0  0  0  0  2  0  0  0  0
    0.0000   -0.4125    0.0000 C   0  0  0  0  0  0  0  2  0  0  0  0
    0.0000    0.4125    0.0000 C   0  0  0  0  0  0  0  2  0  0  0  0
   -0.7145    0.8250    0.0000 C   0  0  0  0  0  0  0  2  0  0  0  0
   -1.4289    0.4125    0.0000 C   0  0  0  0  0  0  0  2  0  0  0  0
   -1.4289   -0.4125    0.0000 C   0  0  0  0  0  0  0  2  0  0  0  0
   -0.7145   -0.8250    0.0000 C   0  0  0  0  0  0  0  2  0  0  0  0
    0.7145    0.8250    0.0000 C   0  0  0  0  0  0  0  2  0  0  0  0
  1  2  4  0        0
  2  3  4  0        0
  3  4  4  0        0
  4  5  4  0        0
  5  6  4  0        0
  6  7  4  0        0
  7  8  4  0        0
  8  9  4  0        0
  4  9  4  0        0
  5 10  4  0        0
  1 10  4  0        0
M  END
>  <CAS RN>
119653

>  <SMILES>
n1ccc2c(cccc2)c1

>  <Measured or Estimated Log10(mmol/L)>
-0.71146104

$$$$

CDXL12

 12 12  0  0  0  0  0  0  0  0999 V2000
    2.1434   -0.4125    0.0000 O   0  0  0  0  0  0  0  2  0  0  0  0
    1.4289   -0.8250    0.0000 C   0  0  0  0  0  0  0  2  0  0  0  0
    0.7145   -0.4125    0.0000 C   0  0  0  0  0  0  0  2  0  0  0  0
    0.7145    0.4125    0.0000 C   0  0  0  0  0  0  0  2  0  0  0  0
    0.0000    0.8250    0.0000 C   0  0  0  0  0  0  0  2  0  0  0  0
   -0.7145    0.4125    0.0000 C   0  0  0  0  0  0  0  2  0  0  0  0
   -1.4289    0.8250    0.0000 O   0  0  0  0  0  0  0  2  0  0  0  0
   -2.1434    0.4125    0.0000 C   0  0  0  0  0  0  0  2  0  0  0  0
   -0.7145   -0.4125    0.0000 C   0  0  0  0  0  0  0  2  0  0  0  0
   -1.4289   -0.8250    0.0000 O   0  0  0  0  0  0  0  2  0  0  0  0
   -2.1434   -0.4125    0.0000 C   0  0  0  0  0  0  0  2  0  0  0  0
    0.0000   -0.8250    0.0000 C   0  0  0  0  0  0  0  2  0  0  0  0
  1  2  2  0        0
  2  3  1  0        0
  3  4  4  0        0
  4  5  4  0        0
  5  6  4  0        0
  6  7  1  0        0
  7  8  1  0        0
  6  9  4  0        0
  9 10  1  0        0
 10 11  1  0        0
  9 12  4  0        0
  3 12  4  0        0
M  END
>  <CAS RN>
120149

>  <SMILES>
O=Cc1ccc(OC)c(OC)c1

>  <Measured or Estimated Log10(mmol/L)>
-0.148686283

$$$$

CDXL12

 13 13  0  0  0  0  0  0  0  0999 V2000
    1.0717    0.4125    0.0000 C   0  0  0  0  0  0  0  2  0  0  0  0
    1.0717   -0.4125    0.0000 C   0  0  0  0  0  0  0  2  0  0  0  0
    0.3572   -0.8250    0.0000 C   0  0  0  0  0  0  0  2  0  0  0  0
   -0.3572   -0.4125    0.0000 C   0  0  0  0  0  0  0  2  0  0  0  0
   -0.3572    0.4125    0.0000 C   0  0  0  0  0  0  0  2  0  0  0  0
    0.3572    0.8250    0.0000 C   0  0  0  0  0  0  0  2  0  0  0  0
   -1.0717    0.8250    0.0000 O   0  0  0  0  0  0  0  2  0  0  0  0
   -1.7862    0.4125    0.0000 C   0  0  0  0  0  0  0  2  0  0  0  0
   -2.5006    0.8250    0.0000 C   0  0  0  0  0  0  0  2  0  0  0  0
   -1.0717   -0.8250    0.0000 O   0  0  0  0  0  0  0  2  0  0  0  0
   -1.7862   -0.4125    0.0000 C   0  0  0  0  0  0  0  2  0  0  0  0
    1.7862   -0.8250    0.0000 C   0  0  0  0  0  0  0  2  0  0  0  0
    2.5006   -0.4125    0.0000 O   0  0  0  0  0  0  0  2  0  0  0  0
  1  2  4  0        0
  2  3  4  0        0
  3  4  4  0        0
  4  5  4  0        0
  5  6  4  0        0
  1  6  4  0        0
  5  7  1  0        0
  7  8  1  0        0
  8  9  1  0        0
  4 10  1  0        0
 10 11  1  0        0
  2 12  1  0        0
 12 13  2  0        0
M  END
>  <CAS RN>
120252

>  <SMILES>
c1c(cc(c(c1)OCC)OC)C=O

>  <Measured or Estimated Log10(mmol/L)>
-0.195064167

$$$$

CDXL12

  9  9  0  0  0  0  0  0  0  0999 V2000
   -0.7145   -0.4125    0.0000 C   0  0  0  0  0  0  0  2  0  0  0  0
   -0.7145    0.4125    0.0000 C   0  0  0  0  0  0  0  2  0  0  0  0
    0.0000    0.8250    0.0000 C   0  0  0  0  0  0  0  2  0  0  0  0
    0.7145    0.4125    0.0000 C   0  0  0  0  0  0  0  2  0  0  0  0
    0.7145   -0.4125    0.0000 C   0  0  0  0  0  0  0  2  0  0  0  0
    1.4289   -0.8250    0.0000 Cl  0  0  0  0  0  0  0  2  0  0  0  0
    0.0000   -0.8250    0.0000 C   0  0  0  0  0  0  0  2  0  0  0  0
    1.4289    0.8250    0.0000 Cl  0  0  0  0  0  0  0  2  0  0  0  0
   -1.4289   -0.8250    0.0000 Cl  0  0  0  0  0  0  0  2  0  0  0  0
  1  2  4  0        0
  2  3  4  0        0
  3  4  4  0        0
  4  5  4  0        0
  5  6  1  0        0
  5  7  4  0        0
  1  7  4  0        0
  4  8  1  0        0
  1  9  1  0        0
M  END
>  <CAS RN>
120821

>  <SMILES>
c1(ccc(c(Cl)c1)Cl)Cl

>  <Measured or Estimated Log10(mmol/L)>
-1.372828239

$$$$

CDXL12

  9  9  0  0  0  0  0  0  0  0999 V2000
    1.4289    0.8250    0.0000 O   0  0  0  0  0  0  0  2  0  0  0  0
    0.7145    0.4125    0.0000 C   0  0  0  0  0  0  0  2  0  0  0  0
    0.7145   -0.4125    0.0000 C   0  0  0  0  0  0  0  2  0  0  0  0
    0.0000   -0.8250    0.0000 C   0  0  0  0  0  0  0  2  0  0  0  0
   -0.7145   -0.4125    0.0000 C   0  0  0  0  0  0  0  2  0  0  0  0
   -0.7145    0.4125    0.0000 C   0  0  0  0  0  0  0  2  0  0  0  0
    0.0000    0.8250    0.0000 C   0  0  0  0  0  0  0  2  0  0  0  0
   -1.4289   -0.8250    0.0000 Cl  0  0  0  0  0  0  0  2  0  0  0  0
    1.4289   -0.8250    0.0000 Cl  0  0  0  0  0  0  0  2  0  0  0  0
  1  2  1  0        0
  2  3  4  0        0
  3  4  4  0        0
  4  5  4  0        0
  5  6  4  0        0
  6  7  4  0        0
  2  7  4  0        0
  5  8  1  0        0
  3  9  1  0        0
M  END
>  <CAS RN>
120832

>  <SMILES>
Oc1c(cc(cc1)Cl)Cl

>  <Measured or Estimated Log10(mmol/L)>
-0.810075335

$$$$

CDXL12

  6  6  0  0  0  0  0  0  0  0999 V2000
    1.0597    0.4048    0.0000 O   0  0  0  0  0  0  0  2  0  0  0  0
    0.2751    0.1498    0.0000 C   0  0  0  0  0  0  0  2  0  0  0  0
    0.0202   -0.6348    0.0000 C   0  0  0  0  0  0  0  2  0  0  0  0
   -0.8048   -0.6348    0.0000 C   0  0  0  0  0  0  0  2  0  0  0  0
   -1.0597    0.1498    0.0000 C   0  0  0  0  0  0  0  2  0  0  0  0
   -0.3923    0.6348    0.0000 C   0  0  0  0  0  0  0  2  0  0  0  0
  1  2  2  0        0
  2  3  1  0        0
  3  4  1  0        0
  4  5  1  0        0
  5  6  1  0        0
  2  6  1  0        0
M  END
>  <CAS RN>
120923

>  <SMILES>
O=C1CCCC1

>  <Measured or Estimated Log10(mmol/L)>
1.0832923

$$$$

CDXL12

  6  6  0  0  0  0  0  0  0  0999 V2000
    1.0597    0.4048    0.0000 O   0  0  0  0  0  0  0  2  0  0  0  0
    0.2751    0.1498    0.0000 C   0  0  0  0  0  0  0  2  0  0  0  0
    0.0202   -0.6348    0.0000 N   0  0  0  0  0  0  0  2  0  0  0  0
   -0.8048   -0.6348    0.0000 C   0  0  0  0  0  0  0  2  0  0  0  0
   -1.0597    0.1498    0.0000 C   0  0  0  0  0  0  0  2  0  0  0  0
   -0.3923    0.6348    0.0000 N   0  0  0  0  0  0  0  2  0  0  0  0
  1  2  2  0        0
  2  3  1  0        0
  3  4  1  0        0
  4  5  1  0        0
  5  6  1  0        0
  2  6  1  0        0
M  END
>  <CAS RN>
120934

>  <SMILES>
O=C1NCCN1

>  <Measured or Estimated Log10(mmol/L)>
1.813215141

$$$$

CDXL12

  6  6  0  0  0  0  0  0  0  0999 V2000
    0.2751    0.1498    0.0000 N   0  0  0  0  0  0  0  2  0  0  0  0
    0.0202   -0.6348    0.0000 C   0  0  0  0  0  0  0  2  0  0  0  0
   -0.8048   -0.6348    0.0000 C   0  0  0  0  0  0  0  2  0  0  0  0
   -1.0597    0.1498    0.0000 C   0  0  0  0  0  0  0  2  0  0  0  0
   -0.3923    0.6348    0.0000 C   0  0  0  0  0  0  0  2  0  0  0  0
    1.0597    0.4048    0.0000 C   0  0  0  0  0  0  0  2  0  0  0  0
  1  2  1  0        0
  2  3  1  0        0
  3  4  1  0        0
  4  5  1  0        0
  1  5  1  0        0
  1  6  1  0        0
M  END
>  <CAS RN>
120945

>  <SMILES>
N1(CCCC1)C

>  <Measured or Estimated Log10(mmol/L)>
-1.61

$$$$

CDXL12

 27 28  0  0  0  0  0  0  0  0999 V2000
    0.4212    0.6285    0.0000 O   0  0  0  0  0  0  0  2  0  0  0  0
    0.7568   -0.1252    0.0000 C   0  0  0  0  0  0  0  2  0  0  0  0
    0.2719   -0.7926    0.0000 O   0  0  0  0  0  0  0  2  0  0  0  0
   -0.5486   -0.7064    0.0000 C   0  0  0  0  0  0  0  2  0  0  0  0
   -1.1006   -1.3195    0.0000 C   0  0  0  0  0  0  0  2  0  0  0  0
   -1.8543   -0.9839    0.0000 C   0  0  0  0  0  0  0  2  0  0  0  0
   -1.7681   -0.1634    0.0000 C   0  0  0  0  0  0  0  2  0  0  0  0
   -2.3812    0.3886    0.0000 O   0  0  0  0  0  0  0  2  0  0  0  0
   -0.9611    0.0081    0.0000 C   0  0  0  0  0  0  0  2  0  0  0  0
   -2.5688   -1.3964    0.0000 C   0  0  0  0  0  0  0  2  0  0  0  0
   -3.2833   -0.9839    0.0000 C   0  0  0  0  0  0  0  2  0  0  0  0
   -3.9977   -1.3964    0.0000 C   0  0  0  0  0  0  0  2  0  0  0  0
   -4.7122   -0.9839    0.0000 C   0  0  0  0  0  0  0  2  0  0  0  0
   -5.4267   -1.3964    0.0000 C   0  0  0  0  0  0  0  2  0  0  0  0
   -0.9291   -2.1265    0.0000 C   0  0  0  0  0  0  0  2  0  0  0  0
    1.5773   -0.2114    0.0000 C   0  0  0  0  0  0  0  2  0  0  0  0
    2.2447   -0.6963    0.0000 C   0  0  0  0  0  0  0  2  0  0  0  0
    2.9121   -1.1813    0.0000 C   0  0  0  0  0  0  0  2  0  0  0  0
    2.1585   -1.5168    0.0000 C   0  0  0  0  0  0  0  2  0  0  0  0
    2.3309    0.1241    0.0000 C   0  0  0  0  0  0  0  2  0  0  0  0
    2.8159    0.7916    0.0000 C   0  0  0  0  0  0  0  2  0  0  0  0
    3.6363    0.7053    0.0000 C   0  0  0  0  0  0  0  2  0  0  0  0
    4.1213    1.3728    0.0000 C   0  0  0  0  0  0  0  2  0  0  0  0
    3.7857    2.1265    0.0000 O   0  0  0  0  0  0  0  2  0  0  0  0
    4.9418    1.2865    0.0000 O   0  0  0  0  0  0  0  2  0  0  0  0
    5.4267    1.9540    0.0000 C   0  0  0  0  0  0  0  2  0  0  0  0
    3.9719   -0.0483    0.0000 C   0  0  0  0  0  0  0  2  0  0  0  0
  1  2  2  0        0
  2  3  1  0        0
  3  4  1  0        0
  4  5  1  0        0
  5  6  2  0        0
  6  7  1  0        0
  7  8  2  0        0
  7  9  1  0        0
  4  9  1  0        0
  6 10  1  0        0
 10 11  1  0        0
 11 12  2  0        0
 12 13  1  0        0
 13 14  2  0        0
  5 15  1  0        0
  2 16  1  0        0
 16 17  1  0        0
 17 18  1  0        0
 17 19  1  0        0
 17 20  1  0        0
 16 20  1  0        0
 20 21  1  0        0
 21 22  2  0        0
 22 23  1  0        0
 23 24  2  0        0
 23 25  1  0        0
 25 26  1  0        0
 22 27  1  0        0
M  END
>  <CAS RN>
121299

>  <SMILES>
O=C(OC1/C(=C(\C(=O)C1)/CC=CC=C)/C)C1C(C)(C)C1C=C(C(=O)OC)C

>  <Measured or Estimated Log10(mmol/L)>
-4.52968812

$$$$

CDXL12

  9  9  0  0  0  0  0  0  0  0999 V2000
    0.7145   -0.4125    0.0000 N   0  0  0  0  0  0  0  2  0  0  0  0
    0.0000   -0.0000    0.0000 C   0  0  0  0  0  0  0  2  0  0  0  0
   -0.7145   -0.4125    0.0000 C   0  0  0  0  0  0  0  2  0  0  0  0
   -1.4289    0.0000    0.0000 C   0  0  0  0  0  0  0  2  0  0  0  0
   -1.4289    0.8250    0.0000 C   0  0  0  0  0  0  0  2  0  0  0  0
   -0.7145    1.2375    0.0000 C   0  0  0  0  0  0  0  2  0  0  0  0
    0.0000    0.8250    0.0000 C   0  0  0  0  0  0  0  2  0  0  0  0
    0.7145   -1.2375    0.0000 C   0  0  0  0  0  0  0  2  0  0  0  0
    1.4289    0.0000    0.0000 C   0  0  0  0  0  0  0  2  0  0  0  0
  1  2  1  0        0
  2  3  4  0        0
  3  4  4  0        0
  4  5  4  0        0
  5  6  4  0        0
  6  7  4  0        0
  2  7  4  0        0
  1  8  1  0        0
  1  9  1  0        0
M  END
>  <CAS RN>
121697

>  <SMILES>
N(c1ccccc1)(C)C

>  <Measured or Estimated Log10(mmol/L)>
-0.946721125

$$$$

CDXL12

 19 18  0  0  0  0  0  0  0  0999 V2000
    3.2151   -1.0312    0.0000 C   0  0  0  0  0  0  0  2  0  0  0  0
    2.5006   -0.6187    0.0000 C   0  0  0  0  0  0  0  2  0  0  0  0
    1.7862   -1.0312    0.0000 O   0  0  0  0  0  0  0  2  0  0  0  0
    1.0717   -0.6187    0.0000 C   0  0  0  0  0  0  0  2  0  0  0  0
    1.0717    0.2063    0.0000 O   0  0  0  0  0  0  0  2  0  0  0  0
    0.3572   -1.0312    0.0000 C   0  0  0  0  0  0  0  2  0  0  0  0
   -0.3572   -0.6187    0.0000 C   0  0  0  0  0  0  0  2  0  0  0  0
   -1.0717   -1.0312    0.0000 S   0  0  0  0  0  0  0  2  0  0  0  0
   -1.7862   -0.6187    0.0000 P   0  0  0  0  0  0  0  2  0  0  0  0
   -1.7862    0.2063    0.0000 S   0  0  0  0  0  0  0  2  0  0  0  0
   -2.5006   -1.0312    0.0000 O   0  0  0  0  0  0  0  2  0  0  0  0
   -3.2151   -0.6187    0.0000 C   0  0  0  0  0  0  0  2  0  0  0  0
   -1.7862   -1.4437    0.0000 O   0  0  0  0  0  0  0  2  0  0  0  0
   -2.5006   -1.8562    0.0000 C   0  0  0  0  0  0  0  2  0  0  0  0
   -0.3572    0.2063    0.0000 C   0  0  0  0  0  0  0  2  0  0  0  0
    0.3572    0.6188    0.0000 O   0  0  0  0  0  0  0  2  0  0  0  0
   -1.0717    0.6188    0.0000 O   0  0  0  0  0  0  0  2  0  0  0  0
   -1.0717    1.4437    0.0000 C   0  0  0  0  0  0  0  2  0  0  0  0
   -1.7862    1.8562    0.0000 C   0  0  0  0  0  0  0  2  0  0  0  0
  1  2  1  0        0
  2  3  1  0        0
  3  4  1  0        0
  4  5  2  0        0
  4  6  1  0        0
  6  7  1  0        0
  7  8  1  0        0
  8  9  1  0        0
  9 10  2  0        0
  9 11  1  0        0
 11 12  1  0        0
  9 13  1  0        0
 13 14  1  0        0
  7 15  1  0        0
 15 16  2  0        0
 15 17  1  0        0
 17 18  1  0        0
 18 19  1  0        0
M  END
>  <CAS RN>
121755

>  <SMILES>
CCOC(=O)CC(SP(=S)(OC)OC)C(=O)OCC

>  <Measured or Estimated Log10(mmol/L)>
-4.564742319

$$$$

CDXL12

 11 11  0  0  0  0  0  0  0  0999 V2000
   -1.0717    1.2375    0.0000 O   0  0  0  0  0  0  0  2  0  0  0  0
   -1.0717    0.4125    0.0000 N   0  0  0  0  0  0  0  2  0  0  0  0
   -1.7862   -0.0000    0.0000 O   0  0  0  0  0  0  0  2  0  0  0  0
   -0.3572   -0.0000    0.0000 C   0  0  0  0  0  0  0  2  0  0  0  0
   -0.3572   -0.8250    0.0000 C   0  0  0  0  0  0  0  2  0  0  0  0
    0.3572   -1.2375    0.0000 C   0  0  0  0  0  0  0  2  0  0  0  0
    1.0717   -0.8250    0.0000 C   0  0  0  0  0  0  0  2  0  0  0  0
    1.0717    0.0000    0.0000 C   0  0  0  0  0  0  0  2  0  0  0  0
    1.7862    0.4125    0.0000 Cl  0  0  0  0  0  0  0  2  0  0  0  0
    0.3572    0.4125    0.0000 C   0  0  0  0  0  0  0  2  0  0  0  0
    1.7862   -1.2375    0.0000 C   0  0  0  0  0  0  0  2  0  0  0  0
  1  2  2  0        0
  2  3  2  0        0
  2  4  1  0        0
  4  5  4  0        0
  5  6  4  0        0
  6  7  4  0        0
  7  8  4  0        0
  8  9  1  0        0
  8 10  4  0        0
  4 10  4  0        0
  7 11  1  0        0
M  END
>  <CAS RN>
121868

>  <SMILES>
O=N(=O)c1ccc(c(Cl)c1)C

>  <Measured or Estimated Log10(mmol/L)>
-1.46

$$$$

CDXL12

 11 11  0  0  0  0  0  0  0  0999 V2000
   -1.0717    1.2375    0.0000 O   0  0  0  0  0  0  0  2  0  0  0  0
   -1.0717    0.4125    0.0000 N   0  0  0  0  0  0  0  2  0  0  0  0
   -1.7862   -0.0000    0.0000 O   0  0  0  0  0  0  0  2  0  0  0  0
   -0.3572   -0.0000    0.0000 C   0  0  0  0  0  0  0  2  0  0  0  0
   -0.3572   -0.8250    0.0000 C   0  0  0  0  0  0  0  2  0  0  0  0
    0.3572   -1.2375    0.0000 C   0  0  0  0  0  0  0  2  0  0  0  0
    1.0717   -0.8250    0.0000 C   0  0  0  0  0  0  0  2  0  0  0  0
    1.7862   -1.2375    0.0000 N   0  0  0  0  0  0  0  2  0  0  0  0
    1.0717    0.0000    0.0000 C   0  0  0  0  0  0  0  2  0  0  0  0
    1.7862    0.4125    0.0000 Cl  0  0  0  0  0  0  0  2  0  0  0  0
    0.3572    0.4125    0.0000 C   0  0  0  0  0  0  0  2  0  0  0  0
  1  2  2  0        0
  2  3  2  0        0
  2  4  1  0        0
  4  5  4  0        0
  5  6  4  0        0
  6  7  4  0        0
  7  8  1  0        0
  7  9  4  0        0
  9 10  1  0        0
  9 11  4  0        0
  4 11  4  0        0
M  END
>  <CAS RN>
121879

>  <SMILES>
O=N(=O)c1ccc(N)c(Cl)c1

>  <Measured or Estimated Log10(mmol/L)>
-1.488779789

$$$$

CDXL12

 12 12  0  0  0  0  0  0  0  0999 V2000
   -1.4289    1.2375    0.0000 O   0  0  0  0  0  0  0  2  0  0  0  0
   -1.4289    0.4125    0.0000 C   0  0  0  0  0  0  0  2  0  0  0  0
   -2.1434   -0.0000    0.0000 O   0  0  0  0  0  0  0  2  0  0  0  0
   -0.7145   -0.0000    0.0000 C   0  0  0  0  0  0  0  2  0  0  0  0
   -0.7145   -0.8250    0.0000 C   0  0  0  0  0  0  0  2  0  0  0  0
    0.0000   -1.2375    0.0000 C   0  0  0  0  0  0  0  2  0  0  0  0
    0.7145   -0.8250    0.0000 C   0  0  0  0  0  0  0  2  0  0  0  0
    0.7145   -0.0000    0.0000 C   0  0  0  0  0  0  0  2  0  0  0  0
    1.4289    0.4125    0.0000 C   0  0  0  0  0  0  0  2  0  0  0  0
    1.4289    1.2375    0.0000 O   0  0  0  0  0  0  0  2  0  0  0  0
    2.1434   -0.0000    0.0000 O   0  0  0  0  0  0  0  2  0  0  0  0
    0.0000    0.4125    0.0000 C   0  0  0  0  0  0  0  2  0  0  0  0
  1  2  2  0        0
  2  3  1  0        0
  2  4  1  0        0
  4  5  4  0        0
  5  6  4  0        0
  6  7  4  0        0
  7  8  4  0        0
  8  9  1  0        0
  9 10  2  0        0
  9 11  1  0        0
  8 12  4  0        0
  4 12  4  0        0
M  END
>  <CAS RN>
121915

>  <SMILES>
O=C(O)c1cccc(C(=O)O)c1

>  <Measured or Estimated Log10(mmol/L)>
1.083059203

$$$$

CDXL12

 17 17  0  0  0  0  0  0  0  0999 V2000
    2.8579   -0.4125    0.0000 C   0  0  0  0  0  0  0  2  0  0  0  0
    2.1434   -0.8250    0.0000 O   0  0  0  0  0  0  0  2  0  0  0  0
    1.4289   -0.4125    0.0000 P   0  0  0  0  0  0  0  2  0  0  0  0
    1.4289    0.4125    0.0000 S   0  0  0  0  0  0  0  2  0  0  0  0
    1.4289   -1.2375    0.0000 O   0  0  0  0  0  0  0  2  0  0  0  0
    2.1434   -1.6500    0.0000 C   0  0  0  0  0  0  0  2  0  0  0  0
    0.7145   -0.8250    0.0000 O   0  0  0  0  0  0  0  2  0  0  0  0
    0.0000   -0.4125    0.0000 C   0  0  0  0  0  0  0  2  0  0  0  0
    0.0000    0.4125    0.0000 C   0  0  0  0  0  0  0  2  0  0  0  0
   -0.7145    0.8250    0.0000 C   0  0  0  0  0  0  0  2  0  0  0  0
   -1.4289    0.4125    0.0000 C   0  0  0  0  0  0  0  2  0  0  0  0
   -2.1434    0.8250    0.0000 N   0  0  0  0  0  0  0  2  0  0  0  0
   -2.1434    1.6500    0.0000 O   0  0  0  0  0  0  0  2  0  0  0  0
   -2.8579    0.4125    0.0000 O   0  0  0  0  0  0  0  2  0  0  0  0
   -1.4289   -0.4125    0.0000 C   0  0  0  0  0  0  0  2  0  0  0  0
   -2.1434   -0.8250    0.0000 C   0  0  0  0  0  0  0  2  0  0  0  0
   -0.7145   -0.8250    0.0000 C   0  0  0  0  0  0  0  2  0  0  0  0
  1  2  1  0        0
  2  3  1  0        0
  3  4  2  0        0
  3  5  1  0        0
  5  6  1  0        0
  3  7  1  0        0
  7  8  1  0        0
  8  9  4  0        0
  9 10  4  0        0
 10 11  4  0        0
 11 12  1  0        0
 12 13  2  0        0
 12 14  2  0        0
 11 15  4  0        0
 15 16  1  0        0
 15 17  4  0        0
  8 17  4  0        0
M  END
>  <CAS RN>
122145

>  <SMILES>
COP(=S)(OC)Oc1ccc(N(=O)=O)c(C)c1

>  <Measured or Estimated Log10(mmol/L)>
-3.661811119

$$$$

CDXL12

 27 27  0  0  0  0  0  0  0  0999 V2000
    7.0498   -0.5543    0.0000 C   0  0  0  0  0  0  0  2  0  0  0  0
    6.3353   -0.9668    0.0000 C   0  0  0  0  0  0  0  2  0  0  0  0
    5.6209   -0.5543    0.0000 C   0  0  0  0  0  0  0  2  0  0  0  0
    4.9064   -0.9668    0.0000 C   0  0  0  0  0  0  0  2  0  0  0  0
    4.1919   -0.5543    0.0000 C   0  0  0  0  0  0  0  2  0  0  0  0
    3.4774   -0.9668    0.0000 C   0  0  0  0  0  0  0  2  0  0  0  0
    2.7630   -0.5543    0.0000 C   0  0  0  0  0  0  0  2  0  0  0  0
    2.0485   -0.9668    0.0000 C   0  0  0  0  0  0  0  2  0  0  0  0
    1.3340   -0.5543    0.0000 C   0  0  0  0  0  0  0  2  0  0  0  0
    0.6196   -0.9668    0.0000 C   0  0  0  0  0  0  0  2  0  0  0  0
   -0.0949   -0.5543    0.0000 C   0  0  0  0  0  0  0  2  0  0  0  0
   -0.8094   -0.9668    0.0000 C   0  0  0  0  0  0  0  2  0  0  0  0
   -1.5239   -0.5543    0.0000 C   0  0  0  0  0  0  0  2  0  0  0  0
   -2.2383   -0.9668    0.0000 C   0  0  0  0  0  0  0  2  0  0  0  0
   -2.9528   -0.5543    0.0000 C   0  0  0  0  0  0  0  2  0  0  0  0
   -3.6673   -0.9668    0.0000 C   0  0  0  0  0  0  0  2  0  0  0  0
   -4.3817   -0.5543    0.0000 N   0  0  0  0  0  0  0  2  0  0  0  0
   -4.7563    0.1808    0.0000 Cl  0  0  0  0  0  0  0  2  0  0  0  0
   -4.5108   -1.3691    0.0000 C   0  0  0  0  0  0  0  2  0  0  0  0
   -3.7984    0.0291    0.0000 C   0  0  0  0  0  0  0  2  0  0  0  0
   -5.1966   -0.6834    0.0000 C   0  0  0  0  0  0  0  2  0  0  0  0
   -5.7158   -0.0422    0.0000 C   0  0  0  0  0  0  0  2  0  0  0  0
   -6.5306   -0.1713    0.0000 C   0  0  0  0  0  0  0  2  0  0  0  0
   -7.0498    0.4699    0.0000 C   0  0  0  0  0  0  0  2  0  0  0  0
   -6.7541    1.2401    0.0000 C   0  0  0  0  0  0  0  2  0  0  0  0
   -5.9393    1.3691    0.0000 C   0  0  0  0  0  0  0  2  0  0  0  0
   -5.4201    0.7280    0.0000 C   0  0  0  0  0  0  0  2  0  0  0  0
  1  2  1  0        0
  2  3  1  0        0
  3  4  1  0        0
  4  5  1  0        0
  5  6  1  0        0
  6  7  1  0        0
  7  8  1  0        0
  8  9  1  0        0
  9 10  1  0        0
 10 11  1  0        0
 11 12  1  0        0
 12 13  1  0        0
 13 14  1  0        0
 14 15  1  0        0
 15 16  1  0        0
 16 17  1  0        0
 17 18  1  0        0
 17 19  1  0        0
 17 20  1  0        0
 17 21  1  0        0
 21 22  1  0        0
 22 23  4  0        0
 23 24  4  0        0
 24 25  4  0        0
 25 26  4  0        0
 26 27  4  0        0
 22 27  4  0        0
M  END
>  <CAS RN>
122189

>  <SMILES>
CCCCCCCCCCCCCCCCN(Cl)(C)(C)Cc1ccccc1

>  <Measured or Estimated Log10(mmol/L)>
-3.7666385

$$$$

CDXL12

 13 13  0  0  0  0  0  0  0  0999 V2000
   -0.7145   -0.0000    0.0000 N   0  0  0  0  0  0  0  2  0  0  0  0
   -0.7145   -0.8250    0.0000 C   0  0  0  0  0  0  0  2  0  0  0  0
    0.0000   -1.2375    0.0000 N   0  0  0  0  0  0  0  2  0  0  0  0
    0.7145   -0.8250    0.0000 C   0  0  0  0  0  0  0  2  0  0  0  0
    0.7145   -0.0000    0.0000 N   0  0  0  0  0  0  0  2  0  0  0  0
    0.0000    0.4125    0.0000 C   0  0  0  0  0  0  0  2  0  0  0  0
    0.0000    1.2375    0.0000 Cl  0  0  0  0  0  0  0  2  0  0  0  0
    1.4289   -1.2375    0.0000 N   0  0  0  0  0  0  0  2  0  0  0  0
    2.1434   -0.8250    0.0000 C   0  0  0  0  0  0  0  2  0  0  0  0
    2.8579   -1.2375    0.0000 C   0  0  0  0  0  0  0  2  0  0  0  0
   -1.4289   -1.2375    0.0000 N   0  0  0  0  0  0  0  2  0  0  0  0
   -2.1434   -0.8250    0.0000 C   0  0  0  0  0  0  0  2  0  0  0  0
   -2.8579   -1.2375    0.0000 C   0  0  0  0  0  0  0  2  0  0  0  0
  1  2  4  0        0
  2  3  4  0        0
  3  4  4  0        0
  4  5  4  0        0
  5  6  4  0        0
  1  6  4  0        0
  6  7  1  0        0
  4  8  1  0        0
  8  9  1  0        0
  9 10  1  0        0
  2 11  1  0        0
 11 12  1  0        0
 12 13  1  0        0
M  END
>  <CAS RN>
122349

>  <SMILES>
n1c(nc(nc1Cl)NCC)NCC

>  <Measured or Estimated Log10(mmol/L)>
-0.331494063

$$$$

CDXL12

 14 15  0  0  0  0  0  0  0  0999 V2000
    0.3572   -0.2063    0.0000 N   0  0  0  0  0  0  0  2  0  0  0  0
   -0.3572    0.2062    0.0000 N   0  0  0  0  0  0  0  2  0  0  0  0
   -1.0717   -0.2063    0.0000 C   0  0  0  0  0  0  0  2  0  0  0  0
   -1.0717   -1.0313    0.0000 C   0  0  0  0  0  0  0  2  0  0  0  0
   -1.7862   -1.4437    0.0000 C   0  0  0  0  0  0  0  2  0  0  0  0
   -2.5006   -1.0313    0.0000 C   0  0  0  0  0  0  0  2  0  0  0  0
   -2.5006   -0.2063    0.0000 C   0  0  0  0  0  0  0  2  0  0  0  0
   -1.7862    0.2062    0.0000 C   0  0  0  0  0  0  0  2  0  0  0  0
    1.0717    0.2062    0.0000 C   0  0  0  0  0  0  0  2  0  0  0  0
    1.0717    1.0312    0.0000 C   0  0  0  0  0  0  0  2  0  0  0  0
    1.7862    1.4437    0.0000 C   0  0  0  0  0  0  0  2  0  0  0  0
    2.5006    1.0312    0.0000 C   0  0  0  0  0  0  0  2  0  0  0  0
    2.5006    0.2062    0.0000 C   0  0  0  0  0  0  0  2  0  0  0  0
    1.7862   -0.2063    0.0000 C   0  0  0  0  0  0  0  2  0  0  0  0
  1  2  1  0        0
  2  3  1  0        0
  3  4  4  0        0
  4  5  4  0        0
  5  6  4  0        0
  6  7  4  0        0
  7  8  4  0        0
  3  8  4  0        0
  1  9  1  0        0
  9 10  4  0        0
 10 11  4  0        0
 11 12  4  0        0
 12 13  4  0        0
 13 14  4  0        0
  9 14  4  0        0
M  END
>  <CAS RN>
122667

>  <SMILES>
N(Nc1ccccc1)c1ccccc1

>  <Measured or Estimated Log10(mmol/L)>
-1.652604783

$$$$

CDXL12

 10 10  0  0  0  0  0  0  0  0999 V2000
   -1.0717    0.4125    0.0000 O   0  0  0  0  0  0  0  2  0  0  0  0
   -1.0717   -0.4125    0.0000 C   0  0  0  0  0  0  0  2  0  0  0  0
   -0.3572   -0.8250    0.0000 O   0  0  0  0  0  0  0  2  0  0  0  0
    0.3572   -0.4125    0.0000 C   0  0  0  0  0  0  0  2  0  0  0  0
    1.0717   -0.8250    0.0000 C   0  0  0  0  0  0  0  2  0  0  0  0
    1.7862   -0.4125    0.0000 C   0  0  0  0  0  0  0  2  0  0  0  0
    1.7862    0.4125    0.0000 C   0  0  0  0  0  0  0  2  0  0  0  0
    1.0717    0.8250    0.0000 C   0  0  0  0  0  0  0  2  0  0  0  0
    0.3572    0.4125    0.0000 C   0  0  0  0  0  0  0  2  0  0  0  0
   -1.7862   -0.8250    0.0000 C   0  0  0  0  0  0  0  2  0  0  0  0
  1  2  2  0        0
  2  3  1  0        0
  3  4  1  0        0
  4  5  4  0        0
  5  6  4  0        0
  6  7  4  0        0
  7  8  4  0        0
  8  9  4  0        0
  4  9  4  0        0
  2 10  1  0        0
M  END
>  <CAS RN>
122792

>  <SMILES>
O=C(Oc1ccccc1)C

>  <Measured or Estimated Log10(mmol/L)>
-0.6369823

$$$$

CDXL12

  9  9  0  0  0  0  0  0  0  0999 V2000
    1.7862   -0.4125    0.0000 O   0  0  0  0  0  0  0  2  0  0  0  0
    1.0717   -0.8250    0.0000 C   0  0  0  0  0  0  0  2  0  0  0  0
    0.3572   -0.4125    0.0000 C   0  0  0  0  0  0  0  2  0  0  0  0
   -0.3572   -0.8250    0.0000 C   0  0  0  0  0  0  0  2  0  0  0  0
   -1.0717   -0.4125    0.0000 C   0  0  0  0  0  0  0  2  0  0  0  0
   -1.0717    0.4125    0.0000 C   0  0  0  0  0  0  0  2  0  0  0  0
   -1.7862    0.8250    0.0000 O   0  0  0  0  0  0  0  2  0  0  0  0
   -0.3572    0.8250    0.0000 C   0  0  0  0  0  0  0  2  0  0  0  0
    0.3572    0.4125    0.0000 C   0  0  0  0  0  0  0  2  0  0  0  0
  1  2  2  0        0
  2  3  1  0        0
  3  4  4  0        0
  4  5  4  0        0
  5  6  4  0        0
  6  7  1  0        0
  6  8  4  0        0
  8  9  4  0        0
  3  9  4  0        0
M  END
>  <CAS RN>
123080

>  <SMILES>
O=Cc1ccc(O)cc1

>  <Measured or Estimated Log10(mmol/L)>
-0.484737462

$$$$

CDXL12

  8  8  0  0  0  0  0  0  0  0999 V2000
    1.4289    0.8250    0.0000 O   0  0  0  0  0  0  0  2  0  0  0  0
    0.7145    0.4125    0.0000 C   0  0  0  0  0  0  0  2  0  0  0  0
    0.7145   -0.4125    0.0000 C   0  0  0  0  0  0  0  2  0  0  0  0
    0.0000   -0.8250    0.0000 C   0  0  0  0  0  0  0  2  0  0  0  0
   -0.7145   -0.4125    0.0000 C   0  0  0  0  0  0  0  2  0  0  0  0
   -1.4289   -0.8250    0.0000 N   0  0  0  0  0  0  0  2  0  0  0  0
   -0.7145    0.4125    0.0000 C   0  0  0  0  0  0  0  2  0  0  0  0
    0.0000    0.8250    0.0000 C   0  0  0  0  0  0  0  2  0  0  0  0
  1  2  1  0        0
  2  3  4  0        0
  3  4  4  0        0
  4  5  4  0        0
  5  6  1  0        0
  5  7  4  0        0
  7  8  4  0        0
  2  8  4  0        0
M  END
>  <CAS RN>
123308

>  <SMILES>
Oc1ccc(N)cc1

>  <Measured or Estimated Log10(mmol/L)>
-2.657724946

$$$$

CDXL12

  8  8  0  0  0  0  0  0  0  0999 V2000
    1.4289    0.8250    0.0000 O   0  0  0  0  0  0  0  2  0  0  0  0
    0.7145    0.4125    0.0000 C   0  0  0  0  0  0  0  2  0  0  0  0
    0.7145   -0.4125    0.0000 C   0  0  0  0  0  0  0  2  0  0  0  0
    0.0000   -0.8250    0.0000 C   0  0  0  0  0  0  0  2  0  0  0  0
   -0.7145   -0.4125    0.0000 C   0  0  0  0  0  0  0  2  0  0  0  0
   -1.4289   -0.8250    0.0000 O   0  0  0  0  0  0  0  2  0  0  0  0
   -0.7145    0.4125    0.0000 C   0  0  0  0  0  0  0  2  0  0  0  0
    0.0000    0.8250    0.0000 C   0  0  0  0  0  0  0  2  0  0  0  0
  1  2  1  0        0
  2  3  4  0        0
  3  4  4  0        0
  4  5  4  0        0
  5  6  1  0        0
  5  7  4  0        0
  7  8  4  0        0
  2  8  4  0        0
M  END
>  <CAS RN>
123319

>  <SMILES>
Oc1ccc(O)cc1

>  <Measured or Estimated Log10(mmol/L)>
-3.2692097

$$$$

CDXL12

  8  7  0  0  0  0  0  0  0  0999 V2000
    0.7145    0.6188    0.0000 O   0  0  0  0  0  0  0  2  0  0  0  0
    0.7145   -0.2062    0.0000 C   0  0  0  0  0  0  0  2  0  0  0  0
    0.0000   -0.6188    0.0000 C   0  0  0  0  0  0  0  2  0  0  0  0
   -0.7145   -0.2063    0.0000 C   0  0  0  0  0  0  0  2  0  0  0  0
   -1.4289    0.2062    0.0000 O   0  0  0  0  0  0  0  2  0  0  0  0
   -1.4289   -0.6188    0.0000 C   0  0  0  0  0  0  0  2  0  0  0  0
   -0.7145    0.6188    0.0000 C   0  0  0  0  0  0  0  2  0  0  0  0
    1.4289   -0.6188    0.0000 C   0  0  0  0  0  0  0  2  0  0  0  0
  1  2  2  0        0
  2  3  1  0        0
  3  4  1  0        0
  4  5  1  0        0
  4  6  1  0        0
  4  7  1  0        0
  2  8  1  0        0
M  END
>  <CAS RN>
123422

>  <SMILES>
O=C(CC(O)(C)C)C

>  <Measured or Estimated Log10(mmol/L)>
1.6636259

$$$$

CDXL12

  7  6  0  0  0  0  0  0  0  0999 V2000
    0.7145    0.6187    0.0000 O   0  0  0  0  0  0  0  2  0  0  0  0
    0.7145   -0.2062    0.0000 C   0  0  0  0  0  0  0  2  0  0  0  0
    0.0000   -0.6188    0.0000 C   0  0  0  0  0  0  0  2  0  0  0  0
   -0.7145   -0.2062    0.0000 C   0  0  0  0  0  0  0  2  0  0  0  0
   -0.7145    0.6188    0.0000 O   0  0  0  0  0  0  0  2  0  0  0  0
   -1.4289   -0.6187    0.0000 C   0  0  0  0  0  0  0  2  0  0  0  0
    1.4289   -0.6188    0.0000 C   0  0  0  0  0  0  0  2  0  0  0  0
  1  2  2  0        0
  2  3  1  0        0
  3  4  1  0        0
  4  5  2  0        0
  4  6  1  0        0
  2  7  1  0        0
M  END
>  <CAS RN>
123546

>  <SMILES>
O=C(CC(=O)C)C

>  <Measured or Estimated Log10(mmol/L)>
-0.322900875

$$$$

CDXL12

  8  7  0  0  0  0  0  0  0  0999 V2000
   -1.4289    0.6187    0.0000 O   0  0  0  0  0  0  0  2  0  0  0  0
   -1.4289   -0.2062    0.0000 C   0  0  0  0  0  0  0  2  0  0  0  0
   -0.7145   -0.6187    0.0000 O   0  0  0  0  0  0  0  2  0  0  0  0
    0.0000   -0.2062    0.0000 C   0  0  0  0  0  0  0  2  0  0  0  0
    0.7145   -0.6187    0.0000 C   0  0  0  0  0  0  0  2  0  0  0  0
    1.4289   -0.2062    0.0000 C   0  0  0  0  0  0  0  2  0  0  0  0
    2.1434   -0.6187    0.0000 C   0  0  0  0  0  0  0  2  0  0  0  0
   -2.1434   -0.6187    0.0000 C   0  0  0  0  0  0  0  2  0  0  0  0
  1  2  2  0        0
  2  3  1  0        0
  3  4  1  0        0
  4  5  1  0        0
  5  6  1  0        0
  6  7  1  0        0
  2  8  1  0        0
M  END
>  <CAS RN>
123864

>  <SMILES>
O=C(OCCCC)C

>  <Measured or Estimated Log10(mmol/L)>
-0.0359225

$$$$

CDXL12

  6  6  0  0  0  0  0  0  0  0999 V2000
    0.7145   -0.4125    0.0000 O   0  0  0  0  0  0  0  2  0  0  0  0
    0.0000   -0.8250    0.0000 C   0  0  0  0  0  0  0  2  0  0  0  0
   -0.7145   -0.4125    0.0000 C   0  0  0  0  0  0  0  2  0  0  0  0
   -0.7145    0.4125    0.0000 O   0  0  0  0  0  0  0  2  0  0  0  0
    0.0000    0.8250    0.0000 C   0  0  0  0  0  0  0  2  0  0  0  0
    0.7145    0.4125    0.0000 C   0  0  0  0  0  0  0  2  0  0  0  0
  1  2  1  0        0
  2  3  1  0        0
  3  4  1  0        0
  4  5  1  0        0
  5  6  1  0        0
  1  6  1  0        0
M  END
>  <CAS RN>
123911

>  <SMILES>
O1CCOCC1

>  <Measured or Estimated Log10(mmol/L)>
1.4978163

$$$$

CDXL12

 10  9  0  0  0  0  0  0  0  0999 V2000
   -2.5006    0.2062    0.0000 C   0  0  0  0  0  0  0  2  0  0  0  0
   -1.7862   -0.2062    0.0000 C   0  0  0  0  0  0  0  2  0  0  0  0
   -1.0717    0.2062    0.0000 C   0  0  0  0  0  0  0  2  0  0  0  0
   -0.3572   -0.2062    0.0000 C   0  0  0  0  0  0  0  2  0  0  0  0
    0.3572    0.2062    0.0000 C   0  0  0  0  0  0  0  2  0  0  0  0
    1.0717   -0.2062    0.0000 C   0  0  0  0  0  0  0  2  0  0  0  0
    1.7862    0.2062    0.0000 C   0  0  0  0  0  0  0  2  0  0  0  0
    2.5006   -0.2062    0.0000 C   0  0  0  0  0  0  0  2  0  0  0  0
    3.2151    0.2062    0.0000 C   0  0  0  0  0  0  0  2  0  0  0  0
   -3.2151   -0.2062    0.0000 C   0  0  0  0  0  0  0  2  0  0  0  0
  1  2  1  0        0
  2  3  1  0        0
  3  4  1  0        0
  4  5  1  0        0
  5  6  1  0        0
  6  7  1  0        0
  7  8  1  0        0
  8  9  1  0        0
  1 10  1  0        0
M  END
>  <CAS RN>
124185

>  <SMILES>
C(CCCCCCCC)C

>  <Measured or Estimated Log10(mmol/L)>
-0.897889665

$$$$

CDXL12

  3  2  0  0  0  0  0  0  0  0999 V2000
    0.0000    0.2062    0.0000 N   0  0  0  0  0  0  0  2  0  0  0  0
   -0.7145   -0.2062    0.0000 C   0  0  0  0  0  0  0  2  0  0  0  0
    0.7145   -0.2062    0.0000 C   0  0  0  0  0  0  0  2  0  0  0  0
  1  2  1  0        0
  1  3  1  0        0
M  END
>  <CAS RN>
124403

>  <SMILES>
N(C)C

>  <Measured or Estimated Log10(mmol/L)>
0.04493793

$$$$

CDXL12

 17 16  0  0  0  0  0  0  0  0999 V2000
   -0.0000   -2.0625    0.0000 O   0  0  0  0  0  0  0  2  0  0  0  0
   -0.0000   -1.2375    0.0000 P   0  0  0  0  0  0  0  2  0  0  0  0
    0.7145   -0.8250    0.0000 O   0  0  0  0  0  0  0  2  0  0  0  0
    1.4289   -1.2375    0.0000 C   0  0  0  0  0  0  0  2  0  0  0  0
    2.1434   -0.8250    0.0000 C   0  0  0  0  0  0  0  2  0  0  0  0
    2.8579   -1.2375    0.0000 C   0  0  0  0  0  0  0  2  0  0  0  0
    3.5724   -0.8250    0.0000 C   0  0  0  0  0  0  0  2  0  0  0  0
   -0.7145   -0.8250    0.0000 O   0  0  0  0  0  0  0  2  0  0  0  0
   -1.4289   -1.2375    0.0000 C   0  0  0  0  0  0  0  2  0  0  0  0
   -2.1434   -0.8250    0.0000 C   0  0  0  0  0  0  0  2  0  0  0  0
   -2.8579   -1.2375    0.0000 C   0  0  0  0  0  0  0  2  0  0  0  0
   -3.5724   -0.8250    0.0000 C   0  0  0  0  0  0  0  2  0  0  0  0
   -0.0000   -0.4125    0.0000 O   0  0  0  0  0  0  0  2  0  0  0  0
   -0.7145    0.0000    0.0000 C   0  0  0  0  0  0  0  2  0  0  0  0
   -0.7145    0.8250    0.0000 C   0  0  0  0  0  0  0  2  0  0  0  0
   -1.4289    1.2375    0.0000 C   0  0  0  0  0  0  0  2  0  0  0  0
   -1.4289    2.0625    0.0000 C   0  0  0  0  0  0  0  2  0  0  0  0
  1  2  2  0        0
  2  3  1  0        0
  3  4  1  0        0
  4  5  1  0        0
  5  6  1  0        0
  6  7  1  0        0
  2  8  1  0        0
  8  9  1  0        0
  9 10  1  0        0
 10 11  1  0        0
 11 12  1  0        0
  2 13  1  0        0
 13 14  1  0        0
 14 15  1  0        0
 15 16  1  0        0
 16 17  1  0        0
M  END
>  <CAS RN>
126738

>  <SMILES>
O=P(OCCCC)(OCCCC)OCCCC

>  <Measured or Estimated Log10(mmol/L)>
-1.863107656

$$$$

CDXL12

 14 13  0  0  0  0  0  0  0  0999 V2000
    3.2151   -0.2062    0.0000 C   0  0  0  0  0  0  0  2  0  0  0  0
    2.5006   -0.6187    0.0000 C   0  0  0  0  0  0  0  2  0  0  0  0
    1.7862   -0.2062    0.0000 O   0  0  0  0  0  0  0  2  0  0  0  0
    1.0717   -0.6187    0.0000 P   0  0  0  0  0  0  0  2  0  0  0  0
    1.0717   -1.4437    0.0000 O   0  0  0  0  0  0  0  2  0  0  0  0
    1.0717    0.2063    0.0000 O   0  0  0  0  0  0  0  2  0  0  0  0
    1.7862    0.6187    0.0000 C   0  0  0  0  0  0  0  2  0  0  0  0
    1.7862    1.4437    0.0000 C   0  0  0  0  0  0  0  2  0  0  0  0
    0.3572   -0.2062    0.0000 S   0  0  0  0  0  0  0  2  0  0  0  0
   -0.3572   -0.6187    0.0000 C   0  0  0  0  0  0  0  2  0  0  0  0
   -1.0717   -0.2062    0.0000 C   0  0  0  0  0  0  0  2  0  0  0  0
   -1.7862   -0.6187    0.0000 S   0  0  0  0  0  0  0  2  0  0  0  0
   -2.5006   -0.2062    0.0000 C   0  0  0  0  0  0  0  2  0  0  0  0
   -3.2151   -0.6187    0.0000 C   0  0  0  0  0  0  0  2  0  0  0  0
  1  2  1  0        0
  2  3  1  0        0
  3  4  1  0        0
  4  5  2  0        0
  4  6  1  0        0
  6  7  1  0        0
  7  8  1  0        0
  4  9  1  0        0
  9 10  1  0        0
 10 11  1  0        0
 11 12  1  0        0
 12 13  1  0        0
 13 14  1  0        0
M  END
>  <CAS RN>
126750

>  <SMILES>
CCOP(=O)(OCC)SCCSCC

>  <Measured or Estimated Log10(mmol/L)>
-4.8651271

$$$$

CDXL12

  5  4  0  0  0  0  0  0  0  0999 V2000
   -1.0717   -0.6187    0.0000 C   0  0  0  0  0  0  0  2  0  0  0  0
   -0.3572   -0.2062    0.0000 C   0  0  0  0  0  0  0  2  0  0  0  0
    0.3572   -0.6188    0.0000 O   0  0  0  0  0  0  0  2  0  0  0  0
    1.0717   -0.2062    0.0000 Na  0  0  0  0  0  0  0  2  0  0  0  0
   -0.3572    0.6188    0.0000 O   0  0  0  0  0  0  0  2  0  0  0  0
  1  2  1  0        0
  2  3  1  0        0
  3  4  1  0        0
  2  5  2  0        0
M  END
>  <CAS RN>
127093

>  <SMILES>
CC(O[Na])=O

>  <Measured or Estimated Log10(mmol/L)>
1.7154414

$$$$

CDXL12

  6  5  0  0  0  0  0  0  0  0999 V2000
    0.3572   -0.2062    0.0000 C   0  0  0  0  0  0  0  2  0  0  0  0
   -0.3572    0.2062    0.0000 C   0  0  0  0  0  0  0  2  0  0  0  0
   -1.0717   -0.2062    0.0000 Cl  0  0  0  0  0  0  0  2  0  0  0  0
   -0.3572    1.0313    0.0000 Cl  0  0  0  0  0  0  0  2  0  0  0  0
    1.0717    0.2062    0.0000 Cl  0  0  0  0  0  0  0  2  0  0  0  0
    0.3572   -1.0313    0.0000 Cl  0  0  0  0  0  0  0  2  0  0  0  0
  1  2  2  0        0
  2  3  1  0        0
  2  4  1  0        0
  1  5  1  0        0
  1  6  1  0        0
M  END
>  <CAS RN>
127184

>  <SMILES>
C(=C(Cl)Cl)(Cl)Cl

>  <Measured or Estimated Log10(mmol/L)>
-1.2898576

$$$$

CDXL12

  6  5  0  0  0  0  0  0  0  0999 V2000
    0.3572   -0.2062    0.0000 C   0  0  0  0  0  0  0  2  0  0  0  0
   -0.3572    0.2062    0.0000 C   0  0  0  0  0  0  0  2  0  0  0  0
   -1.0717   -0.2062    0.0000 Cl  0  0  0  0  0  0  0  2  0  0  0  0
   -0.3572    1.0313    0.0000 Cl  0  0  0  0  0  0  0  2  0  0  0  0
    1.0717    0.2062    0.0000 Cl  0  0  0  0  0  0  0  2  0  0  0  0
    0.3572   -1.0313    0.0000 Cl  0  0  0  0  0  0  0  2  0  0  0  0
  1  2  2  0        0
  2  3  1  0        0
  2  4  1  0        0
  1  5  1  0        0
  1  6  1  0        0
M  END
>  <CAS RN>
127684

>  <SMILES>
C(=C(\Cl)/Cl)(/Cl)\Cl

>  <Measured or Estimated Log10(mmol/L)>
1.48547902

$$$$

CDXL12

 20 22  0  0  0  0  0  0  0  0999 V2000
    1.3737    1.2375    0.0000 S   0  0  0  0  0  0  0  2  0  0  0  0
    2.1987    1.2375    0.0000 O   0  0  0  0  0  0  0  2  0  0  0  0
    0.5487    1.2375    0.0000 O   0  0  0  0  0  0  0  2  0  0  0  0
    1.3737    2.0625    0.0000 O   0  0  0  0  0  0  0  2  0  0  0  0
    1.3737    0.4125    0.0000 C   0  0  0  0  0  0  0  2  0  0  0  0
    2.0881   -0.0000    0.0000 C   0  0  0  0  0  0  0  2  0  0  0  0
    2.0881   -0.8250    0.0000 C   0  0  0  0  0  0  0  2  0  0  0  0
    1.3737   -1.2375    0.0000 C   0  0  0  0  0  0  0  2  0  0  0  0
    0.6592   -0.8250    0.0000 C   0  0  0  0  0  0  0  2  0  0  0  0
   -0.0553   -1.2375    0.0000 C   0  0  0  0  0  0  0  2  0  0  0  0
   -0.0553   -2.0625    0.0000 O   0  0  0  0  0  0  0  2  0  0  0  0
   -0.7697   -0.8250    0.0000 C   0  0  0  0  0  0  0  2  0  0  0  0
   -1.4842   -1.2375    0.0000 C   0  0  0  0  0  0  0  2  0  0  0  0
   -2.1987   -0.8250    0.0000 C   0  0  0  0  0  0  0  2  0  0  0  0
   -2.1987    0.0000    0.0000 C   0  0  0  0  0  0  0  2  0  0  0  0
   -1.4842    0.4125    0.0000 C   0  0  0  0  0  0  0  2  0  0  0  0
   -0.7697    0.0000    0.0000 C   0  0  0  0  0  0  0  2  0  0  0  0
   -0.0553    0.4125    0.0000 C   0  0  0  0  0  0  0  2  0  0  0  0
   -0.0553    1.2375    0.0000 O   0  0  0  0  0  0  0  2  0  0  0  0
    0.6592   -0.0000    0.0000 C   0  0  0  0  0  0  0  2  0  0  0  0
  1  2  2  0        0
  1  3  2  0        0
  1  4  1  0        0
  1  5  1  0        0
  5  6  4  0        0
  6  7  4  0        0
  7  8  4  0        0
  8  9  4  0        0
  9 10  1  0        0
 10 11  2  0        0
 10 12  1  0        0
 12 13  4  0        0
 13 14  4  0        0
 14 15  4  0        0
 15 16  4  0        0
 16 17  4  0        0
 12 17  4  0        0
 17 18  1  0        0
 18 19  2  0        0
 18 20  1  0        0
  5 20  4  0        0
  9 20  4  0        0
M  END
>  <CAS RN>
128563

>  <SMILES>
S(=O)(=O)(O)c1cccc2C(=O)c3ccccc3C(=O)c12

>  <Measured or Estimated Log10(mmol/L)>
-0.19029705

$$$$

CDXL12

 14 14  0  0  0  0  0  0  0  0999 V2000
    0.3572   -1.6500    0.0000 O   0  0  0  0  0  0  0  2  0  0  0  0
    0.3572   -0.8250    0.0000 C   0  0  0  0  0  0  0  2  0  0  0  0
    1.0717   -0.4125    0.0000 O   0  0  0  0  0  0  0  2  0  0  0  0
    1.7862   -0.8250    0.0000 C   0  0  0  0  0  0  0  2  0  0  0  0
   -0.3572   -0.4125    0.0000 C   0  0  0  0  0  0  0  2  0  0  0  0
   -0.3572    0.4125    0.0000 C   0  0  0  0  0  0  0  2  0  0  0  0
   -1.0717    0.8250    0.0000 C   0  0  0  0  0  0  0  2  0  0  0  0
   -1.7862    0.4125    0.0000 C   0  0  0  0  0  0  0  2  0  0  0  0
   -1.7862   -0.4125    0.0000 C   0  0  0  0  0  0  0  2  0  0  0  0
   -1.0717   -0.8250    0.0000 C   0  0  0  0  0  0  0  2  0  0  0  0
    0.3572    0.8250    0.0000 C   0  0  0  0  0  0  0  2  0  0  0  0
    0.3572    1.6500    0.0000 O   0  0  0  0  0  0  0  2  0  0  0  0
    1.0717    0.4125    0.0000 O   0  0  0  0  0  0  0  2  0  0  0  0
    1.7862    0.8250    0.0000 C   0  0  0  0  0  0  0  2  0  0  0  0
  1  2  2  0        0
  2  3  1  0        0
  3  4  1  0        0
  2  5  1  0        0
  5  6  4  0        0
  6  7  4  0        0
  7  8  4  0        0
  8  9  4  0        0
  9 10  4  0        0
  5 10  4  0        0
  6 11  1  0        0
 11 12  2  0        0
 11 13  1  0        0
 13 14  1  0        0
M  END
>  <CAS RN>
131113

>  <SMILES>
O=C(OC)c1c(cccc1)C(=O)OC

>  <Measured or Estimated Log10(mmol/L)>
-0.769703976

$$$$

CDXL12

 18 18  0  0  0  0  0  0  0  0999 V2000
   -0.3572   -1.6500    0.0000 O   0  0  0  0  0  0  0  2  0  0  0  0
   -0.3572   -0.8250    0.0000 C   0  0  0  0  0  0  0  2  0  0  0  0
    0.3572   -0.4125    0.0000 O   0  0  0  0  0  0  0  2  0  0  0  0
    1.0717   -0.8250    0.0000 C   0  0  0  0  0  0  0  2  0  0  0  0
    1.7862   -0.4125    0.0000 C   0  0  0  0  0  0  0  2  0  0  0  0
    2.5006   -0.8250    0.0000 C   0  0  0  0  0  0  0  2  0  0  0  0
   -1.0717   -0.4125    0.0000 C   0  0  0  0  0  0  0  2  0  0  0  0
   -1.0717    0.4125    0.0000 C   0  0  0  0  0  0  0  2  0  0  0  0
   -1.7862    0.8250    0.0000 C   0  0  0  0  0  0  0  2  0  0  0  0
   -2.5006    0.4125    0.0000 C   0  0  0  0  0  0  0  2  0  0  0  0
   -2.5006   -0.4125    0.0000 C   0  0  0  0  0  0  0  2  0  0  0  0
   -1.7862   -0.8250    0.0000 C   0  0  0  0  0  0  0  2  0  0  0  0
   -0.3572    0.8250    0.0000 C   0  0  0  0  0  0  0  2  0  0  0  0
   -0.3572    1.6500    0.0000 O   0  0  0  0  0  0  0  2  0  0  0  0
    0.3572    0.4125    0.0000 O   0  0  0  0  0  0  0  2  0  0  0  0
    1.0717    0.8250    0.0000 C   0  0  0  0  0  0  0  2  0  0  0  0
    1.7862    0.4125    0.0000 C   0  0  0  0  0  0  0  2  0  0  0  0
    2.5006    0.8250    0.0000 C   0  0  0  0  0  0  0  2  0  0  0  0
  1  2  2  0        0
  2  3  1  0        0
  3  4  1  0        0
  4  5  1  0        0
  5  6  2  0        0
  2  7  1  0        0
  7  8  4  0        0
  8  9  4  0        0
  9 10  4  0        0
 10 11  4  0        0
 11 12  4  0        0
  7 12  4  0        0
  8 13  1  0        0
 13 14  2  0        0
 13 15  1  0        0
 15 16  1  0        0
 16 17  1  0        0
 17 18  2  0        0
M  END
>  <CAS RN>
131179

>  <SMILES>
O=C(OCC=C)c1c(cccc1)C(=O)OCC=C

>  <Measured or Estimated Log10(mmol/L)>
-1.4245779

$$$$

CDXL12

 13 13  0  0  0  0  0  0  0  0999 V2000
    1.7862   -0.4125    0.0000 Na  0  0  0  0  0  0  0  2  0  0  0  0
    1.0717   -0.8250    0.0000 O   0  0  0  0  0  0  0  2  0  0  0  0
    0.3572   -0.4125    0.0000 C   0  0  0  0  0  0  0  2  0  0  0  0
   -0.3572   -0.8250    0.0000 C   0  0  0  0  0  0  0  2  0  0  0  0
   -0.3572   -1.6500    0.0000 Cl  0  0  0  0  0  0  0  2  0  0  0  0
   -1.0717   -0.4125    0.0000 C   0  0  0  0  0  0  0  2  0  0  0  0
   -1.7862   -0.8250    0.0000 Cl  0  0  0  0  0  0  0  2  0  0  0  0
   -1.0717    0.4125    0.0000 C   0  0  0  0  0  0  0  2  0  0  0  0
   -1.7862    0.8250    0.0000 Cl  0  0  0  0  0  0  0  2  0  0  0  0
   -0.3572    0.8250    0.0000 C   0  0  0  0  0  0  0  2  0  0  0  0
   -0.3572    1.6500    0.0000 Cl  0  0  0  0  0  0  0  2  0  0  0  0
    0.3572    0.4125    0.0000 C   0  0  0  0  0  0  0  2  0  0  0  0
    1.0717    0.8250    0.0000 Cl  0  0  0  0  0  0  0  2  0  0  0  0
  1  2  1  0        0
  2  3  1  0        0
  3  4  4  0        0
  4  5  1  0        0
  4  6  4  0        0
  6  7  1  0        0
  6  8  4  0        0
  8  9  1  0        0
  8 10  4  0        0
 10 11  1  0        0
 10 12  4  0        0
  3 12  4  0        0
 12 13  1  0        0
M  END
>  <CAS RN>
131522

>  <SMILES>
[Na]Oc1c(Cl)c(Cl)c(Cl)c(Cl)c1Cl

>  <Measured or Estimated Log10(mmol/L)>
-2.847090913

$$$$

CDXL12

 13 15  0  0  0  0  0  0  0  0999 V2000
    0.0000    0.9413    0.0000 O   0  0  0  0  0  0  0  2  0  0  0  0
   -0.6674    0.4564    0.0000 C   0  0  0  0  0  0  0  2  0  0  0  0
   -0.4125   -0.3282    0.0000 C   0  0  0  0  0  0  0  2  0  0  0  0
    0.4125   -0.3282    0.0000 C   0  0  0  0  0  0  0  2  0  0  0  0
    0.9645   -0.9413    0.0000 C   0  0  0  0  0  0  0  2  0  0  0  0
    1.7715   -0.7698    0.0000 C   0  0  0  0  0  0  0  2  0  0  0  0
    2.0264    0.0148    0.0000 C   0  0  0  0  0  0  0  2  0  0  0  0
    1.4744    0.6279    0.0000 C   0  0  0  0  0  0  0  2  0  0  0  0
    0.6674    0.4564    0.0000 C   0  0  0  0  0  0  0  2  0  0  0  0
   -0.9645   -0.9413    0.0000 C   0  0  0  0  0  0  0  2  0  0  0  0
   -1.7715   -0.7698    0.0000 C   0  0  0  0  0  0  0  2  0  0  0  0
   -2.0264    0.0148    0.0000 C   0  0  0  0  0  0  0  2  0  0  0  0
   -1.4744    0.6279    0.0000 C   0  0  0  0  0  0  0  2  0  0  0  0
  1  2  4  0        0
  2  3  4  0        0
  3  4  4  0        0
  4  5  4  0        0
  5  6  4  0        0
  6  7  4  0        0
  7  8  4  0        0
  8  9  4  0        0
  1  9  4  0        0
  4  9  4  0        0
  3 10  4  0        0
 10 11  4  0        0
 11 12  4  0        0
 12 13  4  0        0
  2 13  4  0        0
M  END
>  <CAS RN>
132649

>  <SMILES>
o1c2c(c3ccccc13)cccc2

>  <Measured or Estimated Log10(mmol/L)>
-1.99536416

$$$$

CDXL12

 13 15  0  0  0  0  0  0  0  0999 V2000
    0.0000    0.9413    0.0000 S   0  0  0  0  0  0  0  2  0  0  0  0
   -0.6674    0.4564    0.0000 C   0  0  0  0  0  0  0  2  0  0  0  0
   -0.4125   -0.3282    0.0000 C   0  0  0  0  0  0  0  2  0  0  0  0
    0.4125   -0.3282    0.0000 C   0  0  0  0  0  0  0  2  0  0  0  0
    0.9645   -0.9413    0.0000 C   0  0  0  0  0  0  0  2  0  0  0  0
    1.7715   -0.7698    0.0000 C   0  0  0  0  0  0  0  2  0  0  0  0
    2.0264    0.0148    0.0000 C   0  0  0  0  0  0  0  2  0  0  0  0
    1.4744    0.6279    0.0000 C   0  0  0  0  0  0  0  2  0  0  0  0
    0.6674    0.4564    0.0000 C   0  0  0  0  0  0  0  2  0  0  0  0
   -0.9645   -0.9413    0.0000 C   0  0  0  0  0  0  0  2  0  0  0  0
   -1.7715   -0.7698    0.0000 C   0  0  0  0  0  0  0  2  0  0  0  0
   -2.0264    0.0148    0.0000 C   0  0  0  0  0  0  0  2  0  0  0  0
   -1.4744    0.6279    0.0000 C   0  0  0  0  0  0  0  2  0  0  0  0
  1  2  4  0        0
  2  3  4  0        0
  3  4  4  0        0
  4  5  4  0        0
  5  6  4  0        0
  6  7  4  0        0
  7  8  4  0        0
  8  9  4  0        0
  1  9  4  0        0
  4  9  4  0        0
  3 10  4  0        0
 10 11  4  0        0
 11 12  4  0        0
 12 13  4  0        0
  2 13  4  0        0
M  END
>  <CAS RN>
132650

>  <SMILES>
s1c2c(c3ccccc13)cccc2

>  <Measured or Estimated Log10(mmol/L)>
-2.642181776

$$$$

CDXL12

 16 17  0  0  0  0  0  0  0  0999 V2000
    0.0880    1.4521    0.0000 O   0  0  0  0  0  0  0  2  0  0  0  0
   -0.1669    0.6674    0.0000 C   0  0  0  0  0  0  0  2  0  0  0  0
    0.3180   -0.0000    0.0000 N   0  0  0  0  0  0  0  2  0  0  0  0
    1.1430   -0.0000    0.0000 S   0  0  0  0  0  0  0  2  0  0  0  0
    1.5555    0.7145    0.0000 C   0  0  0  0  0  0  0  2  0  0  0  0
    1.9680    1.4289    0.0000 Cl  0  0  0  0  0  0  0  2  0  0  0  0
    1.1430    1.4289    0.0000 Cl  0  0  0  0  0  0  0  2  0  0  0  0
    2.3805    0.7145    0.0000 Cl  0  0  0  0  0  0  0  2  0  0  0  0
   -0.1669   -0.6674    0.0000 C   0  0  0  0  0  0  0  2  0  0  0  0
    0.0880   -1.4521    0.0000 O   0  0  0  0  0  0  0  2  0  0  0  0
   -0.9516   -0.4125    0.0000 C   0  0  0  0  0  0  0  2  0  0  0  0
   -1.6660   -0.8250    0.0000 C   0  0  0  0  0  0  0  2  0  0  0  0
   -2.3805   -0.4125    0.0000 C   0  0  0  0  0  0  0  2  0  0  0  0
   -2.3805    0.4125    0.0000 C   0  0  0  0  0  0  0  2  0  0  0  0
   -1.6660    0.8250    0.0000 C   0  0  0  0  0  0  0  2  0  0  0  0
   -0.9516    0.4125    0.0000 C   0  0  0  0  0  0  0  2  0  0  0  0
  1  2  2  0        0
  2  3  1  0        0
  3  4  1  0        0
  4  5  1  0        0
  5  6  1  0        0
  5  7  1  0        0
  5  8  1  0        0
  3  9  1  0        0
  9 10  2  0        0
  9 11  1  0        0
 11 12  1  0        0
 12 13  1  0        0
 13 14  2  0        0
 14 15  1  0        0
 15 16  1  0        0
  2 16  1  0        0
 11 16  1  0        0
M  END
>  <CAS RN>
133062

>  <SMILES>
O=C1N(SC(Cl)(Cl)Cl)C(=O)C2C\C=C/CC12

>  <Measured or Estimated Log10(mmol/L)>
-2.744870645

$$$$

CDXL12

 11 12  0  0  0  0  0  0  0  0999 V2000
    1.7862    0.8250    0.0000 O   0  0  0  0  0  0  0  2  0  0  0  0
    1.0717    0.4125    0.0000 C   0  0  0  0  0  0  0  2  0  0  0  0
    1.0717   -0.4125    0.0000 C   0  0  0  0  0  0  0  2  0  0  0  0
    0.3572   -0.8250    0.0000 C   0  0  0  0  0  0  0  2  0  0  0  0
   -0.3572   -0.4125    0.0000 C   0  0  0  0  0  0  0  2  0  0  0  0
   -0.3572    0.4125    0.0000 C   0  0  0  0  0  0  0  2  0  0  0  0
   -1.0717    0.8250    0.0000 C   0  0  0  0  0  0  0  2  0  0  0  0
   -1.7862    0.4125    0.0000 C   0  0  0  0  0  0  0  2  0  0  0  0
   -1.7862   -0.4125    0.0000 C   0  0  0  0  0  0  0  2  0  0  0  0
   -1.0717   -0.8250    0.0000 C   0  0  0  0  0  0  0  2  0  0  0  0
    0.3572    0.8250    0.0000 C   0  0  0  0  0  0  0  2  0  0  0  0
  1  2  1  0        0
  2  3  4  0        0
  3  4  4  0        0
  4  5  4  0        0
  5  6  4  0        0
  6  7  4  0        0
  7  8  4  0        0
  8  9  4  0        0
  9 10  4  0        0
  5 10  4  0        0
  6 11  4  0        0
  2 11  4  0        0
M  END
>  <CAS RN>
135193

>  <SMILES>
Oc1ccc2c(cccc2)c1

>  <Measured or Estimated Log10(mmol/L)>
-1.609880673

$$$$

CDXL12

 12 11  0  0  0  0  0  0  0  0999 V2000
    1.7862    0.2062    0.0000 N   0  0  0  0  0  0  0  2  0  0  0  0
    1.0717   -0.2062    0.0000 C   0  0  0  0  0  0  0  2  0  0  0  0
    1.0717   -1.0313    0.0000 S   0  0  0  0  0  0  0  2  0  0  0  0
    0.3572    0.2062    0.0000 S   0  0  0  0  0  0  0  2  0  0  0  0
   -0.3572   -0.2062    0.0000 S   0  0  0  0  0  0  0  2  0  0  0  0
   -1.0717    0.2062    0.0000 C   0  0  0  0  0  0  0  2  0  0  0  0
   -1.7862   -0.2062    0.0000 N   0  0  0  0  0  0  0  2  0  0  0  0
   -1.7862   -1.0313    0.0000 C   0  0  0  0  0  0  0  2  0  0  0  0
   -2.5006    0.2062    0.0000 C   0  0  0  0  0  0  0  2  0  0  0  0
   -1.0717    1.0312    0.0000 S   0  0  0  0  0  0  0  2  0  0  0  0
    1.7862    1.0313    0.0000 C   0  0  0  0  0  0  0  2  0  0  0  0
    2.5006   -0.2062    0.0000 C   0  0  0  0  0  0  0  2  0  0  0  0
  1  2  1  0        0
  2  3  2  0        0
  2  4  1  0        0
  4  5  1  0        0
  5  6  1  0        0
  6  7  1  0        0
  7  8  1  0        0
  7  9  1  0        0
  6 10  2  0        0
  1 11  1  0        0
  1 12  1  0        0
M  END
>  <CAS RN>
137268

>  <SMILES>
N(C(=S)SSC(N(C)C)=S)(C)C

>  <Measured or Estimated Log10(mmol/L)>
-3.058772974

$$$$

CDXL12

  6  5  0  0  0  0  0  0  0  0999 V2000
   -1.4289   -0.2062    0.0000 C   0  0  0  0  0  0  0  2  0  0  0  0
   -0.7145   -0.6188    0.0000 N   0  0  0  0  0  0  0  2  0  0  0  0
   -0.0000   -0.2062    0.0000 C   0  0  0  0  0  0  0  2  0  0  0  0
   -0.0000    0.6188    0.0000 S   0  0  0  0  0  0  0  2  0  0  0  0
    0.7145   -0.6187    0.0000 S   0  0  0  0  0  0  0  2  0  0  0  0
    1.4289   -0.2062    0.0000 Na  0  0  0  0  0  0  0  2  0  0  0  0
  1  2  1  0        0
  2  3  1  0        0
  3  4  2  0        0
  3  5  1  0        0
  5  6  1  0        0
M  END
>  <CAS RN>
137428

>  <SMILES>
CNC(=S)S[Na]

>  <Measured or Estimated Log10(mmol/L)>
-2.981818116

$$$$

CDXL12

 10  9  0  0  0  0  0  0  0  0999 V2000
   -2.5006    0.2062    0.0000 C   0  0  0  0  0  0  0  2  0  0  0  0
   -1.7862   -0.2062    0.0000 C   0  0  0  0  0  0  0  2  0  0  0  0
   -1.7862   -1.0312    0.0000 O   0  0  0  0  0  0  0  2  0  0  0  0
   -1.0717    0.2062    0.0000 C   0  0  0  0  0  0  0  2  0  0  0  0
   -1.0717    1.0312    0.0000 O   0  0  0  0  0  0  0  2  0  0  0  0
   -0.3572   -0.2062    0.0000 O   0  0  0  0  0  0  0  2  0  0  0  0
    0.3572    0.2063    0.0000 C   0  0  0  0  0  0  0  2  0  0  0  0
    1.0717   -0.2062    0.0000 C   0  0  0  0  0  0  0  2  0  0  0  0
    1.7862    0.2063    0.0000 C   0  0  0  0  0  0  0  2  0  0  0  0
    2.5006   -0.2062    0.0000 C   0  0  0  0  0  0  0  2  0  0  0  0
  1  2  1  0        0
  2  3  1  0        0
  2  4  1  0        0
  4  5  2  0        0
  4  6  1  0        0
  6  7  1  0        0
  7  8  1  0        0
  8  9  1  0        0
  9 10  1  0        0
M  END
>  <CAS RN>
138227

>  <SMILES>
CC(O)C(=O)OCCCC

>  <Measured or Estimated Log10(mmol/L)>
0.414877823

$$$$

CDXL12

 25 25  0  0  0  0  0  0  0  0999 V2000
    6.3998    0.5760    0.0000 C   0  0  0  0  0  0  0  2  0  0  0  0
    6.0642   -0.1777    0.0000 C   0  0  0  0  0  0  0  2  0  0  0  0
    5.2438   -0.2640    0.0000 C   0  0  0  0  0  0  0  2  0  0  0  0
    4.7588    0.4035    0.0000 C   0  0  0  0  0  0  0  2  0  0  0  0
    3.9384    0.3172    0.0000 C   0  0  0  0  0  0  0  2  0  0  0  0
    3.6028   -0.4364    0.0000 N   0  0  0  0  0  0  0  2  0  0  0  0
    4.4233   -0.5227    0.0000 Cl  0  0  0  0  0  0  0  2  0  0  0  0
    2.9897    0.1156    0.0000 C   0  0  0  0  0  0  0  2  0  0  0  0
    3.7743   -1.2434    0.0000 C   0  0  0  0  0  0  0  2  0  0  0  0
    2.8883   -0.8489    0.0000 C   0  0  0  0  0  0  0  2  0  0  0  0
    2.1739   -0.4364    0.0000 C   0  0  0  0  0  0  0  2  0  0  0  0
    1.4594   -0.8489    0.0000 C   0  0  0  0  0  0  0  2  0  0  0  0
    0.7449   -0.4364    0.0000 C   0  0  0  0  0  0  0  2  0  0  0  0
    0.0304   -0.8489    0.0000 C   0  0  0  0  0  0  0  2  0  0  0  0
   -0.6840   -0.4364    0.0000 C   0  0  0  0  0  0  0  2  0  0  0  0
   -1.3985   -0.8489    0.0000 C   0  0  0  0  0  0  0  2  0  0  0  0
   -2.1130   -0.4364    0.0000 C   0  0  0  0  0  0  0  2  0  0  0  0
   -2.8274   -0.8489    0.0000 C   0  0  0  0  0  0  0  2  0  0  0  0
   -3.5419   -0.4364    0.0000 C   0  0  0  0  0  0  0  2  0  0  0  0
   -4.2564   -0.8489    0.0000 C   0  0  0  0  0  0  0  2  0  0  0  0
   -4.9709   -0.4364    0.0000 C   0  0  0  0  0  0  0  2  0  0  0  0
   -5.6853   -0.8489    0.0000 C   0  0  0  0  0  0  0  2  0  0  0  0
   -6.3998   -0.4364    0.0000 C   0  0  0  0  0  0  0  2  0  0  0  0
    5.0944    1.1572    0.0000 C   0  0  0  0  0  0  0  2  0  0  0  0
    5.9149    1.2434    0.0000 C   0  0  0  0  0  0  0  2  0  0  0  0
  1  2  4  0        0
  2  3  4  0        0
  3  4  4  0        0
  4  5  1  0        0
  5  6  1  0        0
  6  7  1  0        0
  6  8  1  0        0
  6  9  1  0        0
  6 10  1  0        0
 10 11  1  0        0
 11 12  1  0        0
 12 13  1  0        0
 13 14  1  0        0
 14 15  1  0        0
 15 16  1  0        0
 16 17  1  0        0
 17 18  1  0        0
 18 19  1  0        0
 19 20  1  0        0
 20 21  1  0        0
 21 22  1  0        0
 22 23  1  0        0
  4 24  4  0        0
 24 25  4  0        0
  1 25  4  0        0
M  END
>  <CAS RN>
139082

>  <SMILES>
c1ccc(CN(Cl)(C)(C)CCCCCCCCCCCCCC)cc1

>  <Measured or Estimated Log10(mmol/L)>
-3.872303031

$$$$

CDXL12

 13 12  0  0  0  0  0  0  0  0999 V2000
   -1.0717    0.6187    0.0000 O   0  0  0  0  0  0  0  2  0  0  0  0
   -1.0717   -0.2062    0.0000 C   0  0  0  0  0  0  0  2  0  0  0  0
   -1.7862   -0.6188    0.0000 O   0  0  0  0  0  0  0  2  0  0  0  0
   -0.3572   -0.6188    0.0000 C   0  0  0  0  0  0  0  2  0  0  0  0
    0.3572   -0.2062    0.0000 N   0  0  0  0  0  0  0  2  0  0  0  0
    1.0717   -0.6188    0.0000 C   0  0  0  0  0  0  0  2  0  0  0  0
    1.0717   -1.4438    0.0000 C   0  0  0  0  0  0  0  2  0  0  0  0
    0.3572   -1.8563    0.0000 O   0  0  0  0  0  0  0  2  0  0  0  0
    1.7862   -1.8563    0.0000 O   0  0  0  0  0  0  0  2  0  0  0  0
    0.3572    0.6187    0.0000 C   0  0  0  0  0  0  0  2  0  0  0  0
    1.0717    1.0313    0.0000 C   0  0  0  0  0  0  0  2  0  0  0  0
    1.0717    1.8563    0.0000 O   0  0  0  0  0  0  0  2  0  0  0  0
    1.7862    0.6188    0.0000 O   0  0  0  0  0  0  0  2  0  0  0  0
  1  2  2  0        0
  2  3  1  0        0
  2  4  1  0        0
  4  5  1  0        0
  5  6  1  0        0
  6  7  1  0        0
  7  8  2  0        0
  7  9  1  0        0
  5 10  1  0        0
 10 11  1  0        0
 11 12  2  0        0
 11 13  1  0        0
M  END
>  <CAS RN>
139139

>  <SMILES>
O=C(O)CN(CC(=O)O)CC(=O)O

>  <Measured or Estimated Log10(mmol/L)>
0.430417

$$$$

CDXL12

 10 10  0  0  0  0  0  0  0  0999 V2000
    1.7862   -0.4125    0.0000 O   0  0  0  0  0  0  0  2  0  0  0  0
    1.0717   -0.8250    0.0000 C   0  0  0  0  0  0  0  2  0  0  0  0
    0.3572   -0.4125    0.0000 C   0  0  0  0  0  0  0  2  0  0  0  0
   -0.3572   -0.8250    0.0000 C   0  0  0  0  0  0  0  2  0  0  0  0
   -1.0717   -0.4125    0.0000 C   0  0  0  0  0  0  0  2  0  0  0  0
   -1.7862   -0.8250    0.0000 O   0  0  0  0  0  0  0  2  0  0  0  0
   -1.0717    0.4125    0.0000 C   0  0  0  0  0  0  0  2  0  0  0  0
   -1.7862    0.8250    0.0000 O   0  0  0  0  0  0  0  2  0  0  0  0
   -0.3572    0.8250    0.0000 C   0  0  0  0  0  0  0  2  0  0  0  0
    0.3572    0.4125    0.0000 C   0  0  0  0  0  0  0  2  0  0  0  0
  1  2  2  0        0
  2  3  1  0        0
  3  4  4  0        0
  4  5  4  0        0
  5  6  1  0        0
  5  7  4  0        0
  7  8  1  0        0
  7  9  4  0        0
  9 10  4  0        0
  3 10  4  0        0
M  END
>  <CAS RN>
139855

>  <SMILES>
O=Cc1cc(O)c(O)cc1

>  <Measured or Estimated Log10(mmol/L)>
-0.663141594

$$$$

CDXL12

 32 31  0  0  0  0  0  0  0  0999 V2000
   -5.0013    0.0000    0.0000 Na  0  0  0  0  0  0  0  2  0  0  0  0
   -4.2868   -0.4125    0.0000 O   0  0  0  0  0  0  0  2  0  0  0  0
   -3.5724    0.0000    0.0000 C   0  0  0  0  0  0  0  2  0  0  0  0
   -2.8579   -0.4125    0.0000 C   0  0  0  0  0  0  0  2  0  0  0  0
   -2.1434    0.0000    0.0000 N   0  0  0  0  0  0  0  2  0  0  0  0
   -1.4289   -0.4125    0.0000 C   0  0  0  0  0  0  0  2  0  0  0  0
   -0.7145    0.0000    0.0000 C   0  0  0  0  0  0  0  2  0  0  0  0
   -0.0000   -0.4125    0.0000 N   0  0  0  0  0  0  0  2  0  0  0  0
    0.7145    0.0000    0.0000 C   0  0  0  0  0  0  0  2  0  0  0  0
    1.4289   -0.4125    0.0000 C   0  0  0  0  0  0  0  2  0  0  0  0
    2.1434    0.0000    0.0000 N   0  0  0  0  0  0  0  2  0  0  0  0
    2.8579   -0.4125    0.0000 C   0  0  0  0  0  0  0  2  0  0  0  0
    3.5724    0.0000    0.0000 C   0  0  0  0  0  0  0  2  0  0  0  0
    4.2868   -0.4125    0.0000 O   0  0  0  0  0  0  0  2  0  0  0  0
    5.0013    0.0000    0.0000 Na  0  0  0  0  0  0  0  2  0  0  0  0
    3.5724    0.8250    0.0000 O   0  0  0  0  0  0  0  2  0  0  0  0
    2.1434    0.8250    0.0000 C   0  0  0  0  0  0  0  2  0  0  0  0
    1.4289    1.2375    0.0000 C   0  0  0  0  0  0  0  2  0  0  0  0
    0.7145    0.8250    0.0000 O   0  0  0  0  0  0  0  2  0  0  0  0
   -0.0000    1.2375    0.0000 Na  0  0  0  0  0  0  0  2  0  0  0  0
    1.4289    2.0625    0.0000 O   0  0  0  0  0  0  0  2  0  0  0  0
   -0.0000   -1.2375    0.0000 C   0  0  0  0  0  0  0  2  0  0  0  0
    0.7145   -1.6500    0.0000 C   0  0  0  0  0  0  0  2  0  0  0  0
    1.4289   -1.2375    0.0000 O   0  0  0  0  0  0  0  2  0  0  0  0
    2.1434   -1.6500    0.0000 Na  0  0  0  0  0  0  0  2  0  0  0  0
    0.7145   -2.4750    0.0000 O   0  0  0  0  0  0  0  2  0  0  0  0
   -2.1434    0.8250    0.0000 C   0  0  0  0  0  0  0  2  0  0  0  0
   -1.4289    1.2375    0.0000 C   0  0  0  0  0  0  0  2  0  0  0  0
   -1.4289    2.0625    0.0000 O   0  0  0  0  0  0  0  2  0  0  0  0
   -0.7145    2.4750    0.0000 Na  0  0  0  0  0  0  0  2  0  0  0  0
   -0.7145    0.8250    0.0000 O   0  0  0  0  0  0  0  2  0  0  0  0
   -3.5724    0.8250    0.0000 O   0  0  0  0  0  0  0  2  0  0  0  0
  1  2  1  0        0
  2  3  1  0        0
  3  4  1  0        0
  4  5  1  0        0
  5  6  1  0        0
  6  7  1  0        0
  7  8  1  0        0
  8  9  1  0        0
  9 10  1  0        0
 10 11  1  0        0
 11 12  1  0        0
 12 13  1  0        0
 13 14  1  0        0
 14 15  1  0        0
 13 16  2  0        0
 11 17  1  0        0
 17 18  1  0        0
 18 19  1  0        0
 19 20  1  0        0
 18 21  2  0        0
  8 22  1  0        0
 22 23  1  0        0
 23 24  1  0        0
 24 25  1  0        0
 23 26  2  0        0
  5 27  1  0        0
 27 28  1  0        0
 28 29  1  0        0
 29 30  1  0        0
 28 31  2  0        0
  3 32  2  0        0
M  END
>  <CAS RN>
140012

>  <SMILES>
[Na]OC(CN(CCN(CCN(CC(O[Na])=O)CC(O[Na])=O)CC(O[Na])=O)CC(O[Na])=O)=O

>  <Measured or Estimated Log10(mmol/L)>
2.275102735

$$$$

CDXL12

 21 21  0  0  0  0  0  0  0  0999 V2000
    1.0717   -0.8250    0.0000 O   0  0  0  0  0  0  0  2  0  0  0  0
    0.3572   -0.4125    0.0000 C   0  0  0  0  0  0  0  2  0  0  0  0
   -0.3572   -0.8250    0.0000 C   0  0  0  0  0  0  0  2  0  0  0  0
   -0.3572   -1.6500    0.0000 C   0  0  0  0  0  0  0  2  0  0  0  0
   -1.0717   -0.4125    0.0000 O   0  0  0  0  0  0  0  2  0  0  0  0
   -1.7862   -0.8250    0.0000 S   0  0  0  0  0  0  0  2  0  0  0  0
   -1.7862   -1.6500    0.0000 O   0  0  0  0  0  0  0  2  0  0  0  0
   -2.5006   -0.4125    0.0000 O   0  0  0  0  0  0  0  2  0  0  0  0
   -3.2151   -0.8250    0.0000 C   0  0  0  0  0  0  0  2  0  0  0  0
   -3.9296   -0.4125    0.0000 C   0  0  0  0  0  0  0  2  0  0  0  0
   -4.6441   -0.8250    0.0000 Cl  0  0  0  0  0  0  0  2  0  0  0  0
    1.7862   -0.4125    0.0000 C   0  0  0  0  0  0  0  2  0  0  0  0
    1.7862    0.4125    0.0000 C   0  0  0  0  0  0  0  2  0  0  0  0
    2.5006    0.8250    0.0000 C   0  0  0  0  0  0  0  2  0  0  0  0
    3.2151    0.4125    0.0000 C   0  0  0  0  0  0  0  2  0  0  0  0
    3.2151   -0.4125    0.0000 C   0  0  0  0  0  0  0  2  0  0  0  0
    2.5006   -0.8250    0.0000 C   0  0  0  0  0  0  0  2  0  0  0  0
    3.9296    0.8250    0.0000 C   0  0  0  0  0  0  0  2  0  0  0  0
    3.9296    1.6500    0.0000 C   0  0  0  0  0  0  0  2  0  0  0  0
    4.6441    1.2375    0.0000 C   0  0  0  0  0  0  0  2  0  0  0  0
    4.6441    0.4125    0.0000 C   0  0  0  0  0  0  0  2  0  0  0  0
  1  2  1  0        0
  2  3  1  0        0
  3  4  1  0        0
  3  5  1  0        0
  5  6  1  0        0
  6  7  2  0        0
  6  8  1  0        0
  8  9  1  0        0
  9 10  1  0        0
 10 11  1  0        0
  1 12  1  0        0
 12 13  4  0        0
 13 14  4  0        0
 14 15  4  0        0
 15 16  4  0        0
 16 17  4  0        0
 12 17  4  0        0
 15 18  1  0        0
 18 19  1  0        0
 18 20  1  0        0
 18 21  1  0        0
M  END
>  <CAS RN>
140578

>  <SMILES>
O(CC(C)OS(=O)OCCCl)c1ccc(cc1)C(C)(C)C

>  <Measured or Estimated Log10(mmol/L)>
-4.114856045

$$$$

CDXL12

 15 15  0  0  0  0  0  0  0  0999 V2000
   -0.3572   -0.4125    0.0000 C   0  0  0  0  0  0  0  2  0  0  0  0
    0.0553   -1.1270    0.0000 C   0  0  0  0  0  0  0  2  0  0  0  0
   -0.7697   -1.1270    0.0000 C   0  0  0  0  0  0  0  2  0  0  0  0
   -1.0717    0.0000    0.0000 C   0  0  0  0  0  0  0  2  0  0  0  0
   -1.7862   -0.4125    0.0000 C   0  0  0  0  0  0  0  2  0  0  0  0
   -1.7862   -1.2375    0.0000 C   0  0  0  0  0  0  0  2  0  0  0  0
   -2.5006   -0.8250    0.0000 C   0  0  0  0  0  0  0  2  0  0  0  0
   -2.5006    0.0000    0.0000 C   0  0  0  0  0  0  0  2  0  0  0  0
    0.3572    0.0000    0.0000 C   0  0  0  0  0  0  0  2  0  0  0  0
    0.3572    0.8250    0.0000 C   0  0  0  0  0  0  0  2  0  0  0  0
    1.0717    1.2375    0.0000 C   0  0  0  0  0  0  0  2  0  0  0  0
    1.7862    0.8250    0.0000 C   0  0  0  0  0  0  0  2  0  0  0  0
    2.5006    1.2375    0.0000 O   0  0  0  0  0  0  0  2  0  0  0  0
    1.7862    0.0000    0.0000 C   0  0  0  0  0  0  0  2  0  0  0  0
    1.0717   -0.4125    0.0000 C   0  0  0  0  0  0  0  2  0  0  0  0
  1  2  1  0        0
  1  3  1  0        0
  1  4  1  0        0
  4  5  1  0        0
  5  6  1  0        0
  5  7  1  0        0
  5  8  1  0        0
  1  9  1  0        0
  9 10  4  0        0
 10 11  4  0        0
 11 12  4  0        0
 12 13  1  0        0
 12 14  4  0        0
 14 15  4  0        0
  9 15  4  0        0
M  END
>  <CAS RN>
140669

>  <SMILES>
C(C)(C)(CC(C)(C)C)c1ccc(O)cc1

>  <Measured or Estimated Log10(mmol/L)>
-3.360317764

$$$$

CDXL12

  7  6  0  0  0  0  0  0  0  0999 V2000
   -0.3572    0.6187    0.0000 O   0  0  0  0  0  0  0  2  0  0  0  0
   -0.3572   -0.2062    0.0000 C   0  0  0  0  0  0  0  2  0  0  0  0
    0.3572   -0.6187    0.0000 O   0  0  0  0  0  0  0  2  0  0  0  0
    1.0717   -0.2062    0.0000 C   0  0  0  0  0  0  0  2  0  0  0  0
    1.7862   -0.6187    0.0000 C   0  0  0  0  0  0  0  2  0  0  0  0
   -1.0717   -0.6187    0.0000 C   0  0  0  0  0  0  0  2  0  0  0  0
   -1.7862   -0.2062    0.0000 C   0  0  0  0  0  0  0  2  0  0  0  0
  1  2  2  0        0
  2  3  1  0        0
  3  4  1  0        0
  4  5  1  0        0
  2  6  1  0        0
  6  7  2  0        0
M  END
>  <CAS RN>
140885

>  <SMILES>
O=C(OCC)C=C

>  <Measured or Estimated Log10(mmol/L)>
-1.102880728

$$$$

CDXL12

  8  8  0  0  0  0  0  0  0  0999 V2000
    0.7145   -0.4125    0.0000 N   0  0  0  0  0  0  0  2  0  0  0  0
    0.0000   -0.8250    0.0000 N   0  0  0  0  0  0  0  2  0  0  0  0
   -0.7145   -0.4125    0.0000 C   0  0  0  0  0  0  0  2  0  0  0  0
   -0.7145    0.4125    0.0000 C   0  0  0  0  0  0  0  2  0  0  0  0
    0.0000    0.8250    0.0000 C   0  0  0  0  0  0  0  2  0  0  0  0
    0.7145    0.4125    0.0000 C   0  0  0  0  0  0  0  2  0  0  0  0
    1.4289    0.8250    0.0000 Cl  0  0  0  0  0  0  0  2  0  0  0  0
   -1.4289   -0.8250    0.0000 Cl  0  0  0  0  0  0  0  2  0  0  0  0
  1  2  4  0        0
  2  3  4  0        0
  3  4  4  0        0
  4  5  4  0        0
  5  6  4  0        0
  1  6  4  0        0
  6  7  1  0        0
  3  8  1  0        0
M  END
>  <CAS RN>
141300

>  <SMILES>
n1nc(ccc1Cl)Cl

>  <Measured or Estimated Log10(mmol/L)>
-0.2639107

$$$$

CDXL12

  9  8  0  0  0  0  0  0  0  0999 V2000
   -1.0717    0.6187    0.0000 O   0  0  0  0  0  0  0  2  0  0  0  0
   -1.0717   -0.2062    0.0000 C   0  0  0  0  0  0  0  2  0  0  0  0
   -0.3572   -0.6187    0.0000 O   0  0  0  0  0  0  0  2  0  0  0  0
    0.3572   -0.2062    0.0000 C   0  0  0  0  0  0  0  2  0  0  0  0
    1.0717   -0.6187    0.0000 C   0  0  0  0  0  0  0  2  0  0  0  0
    1.7862   -0.2062    0.0000 C   0  0  0  0  0  0  0  2  0  0  0  0
    2.5006   -0.6187    0.0000 C   0  0  0  0  0  0  0  2  0  0  0  0
   -1.7862   -0.6187    0.0000 C   0  0  0  0  0  0  0  2  0  0  0  0
   -2.5006   -0.2062    0.0000 C   0  0  0  0  0  0  0  2  0  0  0  0
  1  2  2  0        0
  2  3  1  0        0
  3  4  1  0        0
  4  5  1  0        0
  5  6  1  0        0
  6  7  1  0        0
  2  8  1  0        0
  8  9  2  0        0
M  END
>  <CAS RN>
141322

>  <SMILES>
O=C(OCCCC)C=C

>  <Measured or Estimated Log10(mmol/L)>
-0.0359225

$$$$

CDXL12

  4  3  0  0  0  0  0  0  0  0999 V2000
   -1.0717    0.2062    0.0000 O   0  0  0  0  0  0  0  2  0  0  0  0
   -0.3572   -0.2062    0.0000 C   0  0  0  0  0  0  0  2  0  0  0  0
    0.3572    0.2062    0.0000 C   0  0  0  0  0  0  0  2  0  0  0  0
    1.0717   -0.2062    0.0000 N   0  0  0  0  0  0  0  2  0  0  0  0
  1  2  1  0        0
  2  3  1  0        0
  3  4  1  0        0
M  END
>  <CAS RN>
141435

>  <SMILES>
OCCN

>  <Measured or Estimated Log10(mmol/L)>
0.0780716

$$$$

CDXL12

 15 14  0  0  0  0  0  0  0  0999 V2000
   -2.8579    0.2062    0.0000 C   0  0  0  0  0  0  0  2  0  0  0  0
   -2.1434   -0.2062    0.0000 O   0  0  0  0  0  0  0  2  0  0  0  0
   -1.4289    0.2062    0.0000 P   0  0  0  0  0  0  0  2  0  0  0  0
   -1.4289    1.0313    0.0000 O   0  0  0  0  0  0  0  2  0  0  0  0
   -1.4289   -0.6188    0.0000 O   0  0  0  0  0  0  0  2  0  0  0  0
   -2.1434   -1.0313    0.0000 C   0  0  0  0  0  0  0  2  0  0  0  0
   -0.7145   -0.2062    0.0000 O   0  0  0  0  0  0  0  2  0  0  0  0
    0.0000    0.2062    0.0000 C   0  0  0  0  0  0  0  2  0  0  0  0
    0.0000    1.0313    0.0000 C   0  0  0  0  0  0  0  2  0  0  0  0
    0.7145   -0.2062    0.0000 C   0  0  0  0  0  0  0  2  0  0  0  0
    1.4289    0.2062    0.0000 C   0  0  0  0  0  0  0  2  0  0  0  0
    1.4289    1.0312    0.0000 O   0  0  0  0  0  0  0  2  0  0  0  0
    2.1434   -0.2062    0.0000 N   0  0  0  0  0  0  0  2  0  0  0  0
    2.1434   -1.0313    0.0000 C   0  0  0  0  0  0  0  2  0  0  0  0
    2.8579    0.2062    0.0000 C   0  0  0  0  0  0  0  2  0  0  0  0
  1  2  1  0        0
  2  3  1  0        0
  3  4  2  0        0
  3  5  1  0        0
  5  6  1  0        0
  3  7  1  0        0
  7  8  1  0        0
  8  9  1  0        0
  8 10  2  0        0
 10 11  1  0        0
 11 12  2  0        0
 11 13  1  0        0
 13 14  1  0        0
 13 15  1  0        0
M  END
>  <CAS RN>
141662

>  <SMILES>
COP(=O)(OC)OC(C)=CC(=O)N(C)C

>  <Measured or Estimated Log10(mmol/L)>
-4.646474781

$$$$

CDXL12

  6  5  0  0  0  0  0  0  0  0999 V2000
   -0.7145    0.6187    0.0000 O   0  0  0  0  0  0  0  2  0  0  0  0
   -0.7145   -0.2062    0.0000 C   0  0  0  0  0  0  0  2  0  0  0  0
   -0.0000   -0.6187    0.0000 O   0  0  0  0  0  0  0  2  0  0  0  0
    0.7145   -0.2062    0.0000 C   0  0  0  0  0  0  0  2  0  0  0  0
    1.4289   -0.6187    0.0000 C   0  0  0  0  0  0  0  2  0  0  0  0
   -1.4289   -0.6187    0.0000 C   0  0  0  0  0  0  0  2  0  0  0  0
  1  2  2  0        0
  2  3  1  0        0
  3  4  1  0        0
  4  5  1  0        0
  2  6  1  0        0
M  END
>  <CAS RN>
141786

>  <SMILES>
O=C(OCC)C

>  <Measured or Estimated Log10(mmol/L)>
0.910412505

$$$$

CDXL12

  8  8  0  0  0  0  0  0  0  0999 V2000
    0.7145   -0.4125    0.0000 C   0  0  0  0  0  0  0  2  0  0  0  0
    0.0000   -0.8250    0.0000 C   0  0  0  0  0  0  0  2  0  0  0  0
   -0.7145   -0.4125    0.0000 N   0  0  0  0  0  0  0  2  0  0  0  0
   -0.7145    0.4125    0.0000 C   0  0  0  0  0  0  0  2  0  0  0  0
   -1.4289    0.8250    0.0000 S   0  0  0  0  0  0  0  2  0  0  0  0
    0.0000    0.8250    0.0000 N   0  0  0  0  0  0  0  2  0  0  0  0
    0.7145    0.4125    0.0000 C   0  0  0  0  0  0  0  2  0  0  0  0
    1.4289    0.8250    0.0000 O   0  0  0  0  0  0  0  2  0  0  0  0
  1  2  2  0        0
  2  3  1  0        0
  3  4  1  0        0
  4  5  2  0        0
  4  6  1  0        0
  6  7  1  0        0
  1  7  1  0        0
  7  8  2  0        0
M  END
>  <CAS RN>
141902

>  <SMILES>
C/1=C/NC(=S)NC1=O

>  <Measured or Estimated Log10(mmol/L)>
-1.221238052

$$$$

CDXL12

  9  8  0  0  0  0  0  0  0  0999 V2000
    0.0000    0.6187    0.0000 O   0  0  0  0  0  0  0  2  0  0  0  0
    0.0000   -0.2062    0.0000 C   0  0  0  0  0  0  0  2  0  0  0  0
    0.7145   -0.6188    0.0000 O   0  0  0  0  0  0  0  2  0  0  0  0
    1.4289   -0.2062    0.0000 C   0  0  0  0  0  0  0  2  0  0  0  0
    2.1434   -0.6187    0.0000 C   0  0  0  0  0  0  0  2  0  0  0  0
   -0.7145   -0.6188    0.0000 C   0  0  0  0  0  0  0  2  0  0  0  0
   -1.4289   -0.2062    0.0000 C   0  0  0  0  0  0  0  2  0  0  0  0
   -1.4289    0.6188    0.0000 O   0  0  0  0  0  0  0  2  0  0  0  0
   -2.1434   -0.6187    0.0000 C   0  0  0  0  0  0  0  2  0  0  0  0
  1  2  2  0        0
  2  3  1  0        0
  3  4  1  0        0
  4  5  1  0        0
  2  6  1  0        0
  6  7  1  0        0
  7  8  2  0        0
  7  9  1  0        0
M  END
>  <CAS RN>
141979

>  <SMILES>
O=C(OCC)CC(=O)C

>  <Measured or Estimated Log10(mmol/L)>
0.5133218

$$$$

CDXL12

  5  4  0  0  0  0  0  0  0  0999 V2000
   -1.4289   -0.2062    0.0000 Cl  0  0  0  0  0  0  0  2  0  0  0  0
   -0.7145    0.2062    0.0000 C   0  0  0  0  0  0  0  2  0  0  0  0
    0.0000   -0.2062    0.0000 C   0  0  0  0  0  0  0  2  0  0  0  0
    0.7145    0.2062    0.0000 C   0  0  0  0  0  0  0  2  0  0  0  0
    1.4289   -0.2062    0.0000 Cl  0  0  0  0  0  0  0  2  0  0  0  0
  1  2  1  0        0
  2  3  1  0        0
  3  4  1  0        0
  4  5  1  0        0
M  END
>  <CAS RN>
142289

>  <SMILES>
ClCCCCl

>  <Measured or Estimated Log10(mmol/L)>
0.394129554

$$$$

CDXL12

 12 11  0  0  0  0  0  0  0  0999 V2000
   -1.7862   -1.0312    0.0000 S   0  0  0  0  0  0  0  2  0  0  0  0
   -1.7862   -0.2062    0.0000 C   0  0  0  0  0  0  0  2  0  0  0  0
   -2.5006    0.2062    0.0000 S   0  0  0  0  0  0  0  2  0  0  0  0
   -3.2151   -0.2062    0.0000 Na  0  0  0  0  0  0  0  2  0  0  0  0
   -1.0717    0.2063    0.0000 N   0  0  0  0  0  0  0  2  0  0  0  0
   -0.3572   -0.2062    0.0000 C   0  0  0  0  0  0  0  2  0  0  0  0
    0.3572    0.2062    0.0000 C   0  0  0  0  0  0  0  2  0  0  0  0
    1.0717   -0.2062    0.0000 N   0  0  0  0  0  0  0  2  0  0  0  0
    1.7862    0.2062    0.0000 C   0  0  0  0  0  0  0  2  0  0  0  0
    1.7862    1.0312    0.0000 S   0  0  0  0  0  0  0  2  0  0  0  0
    2.5006   -0.2062    0.0000 S   0  0  0  0  0  0  0  2  0  0  0  0
    3.2151    0.2062    0.0000 Na  0  0  0  0  0  0  0  2  0  0  0  0
  1  2  2  0        0
  2  3  1  0        0
  3  4  1  0        0
  2  5  1  0        0
  5  6  1  0        0
  6  7  1  0        0
  7  8  1  0        0
  8  9  1  0        0
  9 10  2  0        0
  9 11  1  0        0
 11 12  1  0        0
M  END
>  <CAS RN>
142596

>  <SMILES>
S=C(S[Na])NCCNC(=S)S[Na]

>  <Measured or Estimated Log10(mmol/L)>
-2.765367092

$$$$

CDXL12

 16 15  0  0  0  0  0  0  0  0999 V2000
    3.2151    0.0000    0.0000 S   0  0  0  0  0  0  0  2  0  0  0  0
    3.6276   -0.7145    0.0000 O   0  0  0  0  0  0  0  2  0  0  0  0
    2.8026    0.7145    0.0000 O   0  0  0  0  0  0  0  2  0  0  0  0
    3.9296    0.4125    0.0000 O   0  0  0  0  0  0  0  2  0  0  0  0
    4.6441   -0.0000    0.0000 Na  0  0  0  0  0  0  0  2  0  0  0  0
    2.5006   -0.4125    0.0000 O   0  0  0  0  0  0  0  2  0  0  0  0
    1.7862   -0.0000    0.0000 C   0  0  0  0  0  0  0  2  0  0  0  0
    1.0717   -0.4125    0.0000 C   0  0  0  0  0  0  0  2  0  0  0  0
    0.3572   -0.0000    0.0000 C   0  0  0  0  0  0  0  2  0  0  0  0
   -0.3572   -0.4125    0.0000 C   0  0  0  0  0  0  0  2  0  0  0  0
   -1.0717   -0.0000    0.0000 C   0  0  0  0  0  0  0  2  0  0  0  0
   -1.7862   -0.4125    0.0000 C   0  0  0  0  0  0  0  2  0  0  0  0
   -2.5006   -0.0000    0.0000 C   0  0  0  0  0  0  0  2  0  0  0  0
   -3.2151   -0.4125    0.0000 C   0  0  0  0  0  0  0  2  0  0  0  0
   -3.9296   -0.0000    0.0000 C   0  0  0  0  0  0  0  2  0  0  0  0
   -4.6441   -0.4125    0.0000 C   0  0  0  0  0  0  0  2  0  0  0  0
  1  2  2  0        0
  1  3  2  0        0
  1  4  1  0        0
  4  5  1  0        0
  1  6  1  0        0
  6  7  1  0        0
  7  8  1  0        0
  8  9  1  0        0
  9 10  1  0        0
 10 11  1  0        0
 11 12  1  0        0
 12 13  1  0        0
 13 14  1  0        0
 14 15  1  0        0
 15 16  1  0        0
M  END
>  <CAS RN>
142870

>  <SMILES>
S(=O)(=O)(O[Na])OCCCCCCCCCC

>  <Measured or Estimated Log10(mmol/L)>
-0.025292581

$$$$

CDXL12

  9  8  0  0  0  0  0  0  0  0999 V2000
    0.0000   -0.2062    0.0000 O   0  0  0  0  0  0  0  2  0  0  0  0
   -0.7145    0.2062    0.0000 C   0  0  0  0  0  0  0  2  0  0  0  0
   -1.4289   -0.2062    0.0000 C   0  0  0  0  0  0  0  2  0  0  0  0
   -2.1434    0.2062    0.0000 C   0  0  0  0  0  0  0  2  0  0  0  0
   -2.8579   -0.2062    0.0000 C   0  0  0  0  0  0  0  2  0  0  0  0
    0.7145    0.2062    0.0000 C   0  0  0  0  0  0  0  2  0  0  0  0
    1.4289   -0.2062    0.0000 C   0  0  0  0  0  0  0  2  0  0  0  0
    2.1434    0.2062    0.0000 C   0  0  0  0  0  0  0  2  0  0  0  0
    2.8579   -0.2062    0.0000 C   0  0  0  0  0  0  0  2  0  0  0  0
  1  2  1  0        0
  2  3  1  0        0
  3  4  1  0        0
  4  5  1  0        0
  1  6  1  0        0
  6  7  1  0        0
  7  8  1  0        0
  8  9  1  0        0
M  END
>  <CAS RN>
142961

>  <SMILES>
O(CCCC)CCCC

>  <Measured or Estimated Log10(mmol/L)>
-0.699741027

$$$$

CDXL12

  3  2  0  0  0  0  0  0  0  0999 V2000
    0.8250    0.0000    0.0000 Na  0  0  0  0  0  0  0  2  0  0  0  0
    0.0000    0.0000    0.0000 C   0  0  0  0  0  0  0  2  0  0  0  0
   -0.8250    0.0000    0.0000 N   0  0  0  0  0  0  0  2  0  0  0  0
  1  2  1  0        0
  2  3  3  0        0
M  END
>  <CAS RN>
143339

>  <SMILES>
[Na]C#N

>  <Measured or Estimated Log10(mmol/L)>
-2.389004301

$$$$

CDXL12

 21 25  0  0  0  0  0  0  0  0999 V2000
   -0.8834   -0.5662    0.0000 Cl  0  0  0  0  0  0  0  2  0  0  0  0
   -0.1689   -0.1537    0.0000 C   0  0  0  0  0  0  0  2  0  0  0  0
   -0.1689   -0.9787    0.0000 Cl  0  0  0  0  0  0  0  2  0  0  0  0
    0.7932   -0.1373    0.0000 C   0  0  0  0  0  0  0  2  0  0  0  0
    1.5077   -0.5498    0.0000 Cl  0  0  0  0  0  0  0  2  0  0  0  0
    0.0788   -0.5498    0.0000 C   0  0  0  0  0  0  0  2  0  0  0  0
    0.2220   -1.3622    0.0000 Cl  0  0  0  0  0  0  0  2  0  0  0  0
   -1.1439    0.6325    0.0000 C   0  0  0  0  0  0  0  2  0  0  0  0
   -1.2276    1.4532    0.0000 Cl  0  0  0  0  0  0  0  2  0  0  0  0
   -0.8904   -0.8862    0.0000 C   0  0  0  0  0  0  0  2  0  0  0  0
   -1.5077   -1.4335    0.0000 O   0  0  0  0  0  0  0  2  0  0  0  0
    0.5870   -1.3195    0.0000 C   0  0  0  0  0  0  0  2  0  0  0  0
    1.1471   -1.9252    0.0000 Cl  0  0  0  0  0  0  0  2  0  0  0  0
   -0.6357   -0.1373    0.0000 C   0  0  0  0  0  0  0  2  0  0  0  0
   -1.3502   -0.5498    0.0000 Cl  0  0  0  0  0  0  0  2  0  0  0  0
   -0.6357    0.6877    0.0000 C   0  0  0  0  0  0  0  2  0  0  0  0
   -0.6357    1.5127    0.0000 Cl  0  0  0  0  0  0  0  2  0  0  0  0
    0.0788    1.1002    0.0000 C   0  0  0  0  0  0  0  2  0  0  0  0
    0.0788    1.9252    0.0000 Cl  0  0  0  0  0  0  0  2  0  0  0  0
    0.7932    0.6877    0.0000 C   0  0  0  0  0  0  0  2  0  0  0  0
    1.5077    1.1002    0.0000 Cl  0  0  0  0  0  0  0  2  0  0  0  0
  1  2  1  0        0
  2  3  1  0        0
  2  4  1  0        0
  4  5  1  0        0
  4  6  1  0        0
  6  7  1  0        0
  6  8  1  0        0
  8  9  1  0        0
  8 10  1  0        0
 10 11  2  0        0
 10 12  1  0        0
 12 13  1  0        0
 12 14  1  0        0
  6 14  1  0        0
 14 15  1  0        0
 14 16  1  0        0
  2 16  1  0        0
 16 17  1  0        0
 16 18  1  0        0
 12 18  1  0        0
 18 19  1  0        0
 18 20  1  0        0
  4 20  1  0        0
  8 20  1  0        0
 20 21  1  0        0
M  END
>  <CAS RN>
143500

>  <SMILES>
ClC1(Cl)C2(Cl)C3(Cl)C4(Cl)C(=O)C5(Cl)C3(Cl)C1(Cl)C5(Cl)C24Cl

>  <Measured or Estimated Log10(mmol/L)>
-3.61

$$$$

CDXL12

  5  4  0  0  0  0  0  0  0  0999 V2000
    1.0717   -0.6187    0.0000 O   0  0  0  0  0  0  0  2  0  0  0  0
    0.3572   -0.2062    0.0000 C   0  0  0  0  0  0  0  2  0  0  0  0
   -0.3572   -0.6188    0.0000 O   0  0  0  0  0  0  0  2  0  0  0  0
   -1.0717   -0.2062    0.0000 Na  0  0  0  0  0  0  0  2  0  0  0  0
    0.3572    0.6188    0.0000 O   0  0  0  0  0  0  0  2  0  0  0  0
  1  2  1  0        0
  2  3  1  0        0
  3  4  1  0        0
  2  5  2  0        0
M  END
>  <CAS RN>
144558

>  <SMILES>
OC(O[Na])=O

>  <Measured or Estimated Log10(mmol/L)>
1.267171728

$$$$

CDXL12

 10 10  0  0  0  0  0  0  0  0999 V2000
    1.4289    0.4125    0.0000 N   0  0  0  0  0  0  0  2  0  0  0  0
    0.7145    0.0000    0.0000 C   0  0  0  0  0  0  0  2  0  0  0  0
    0.7145   -0.8250    0.0000 C   0  0  0  0  0  0  0  2  0  0  0  0
    0.0000   -1.2375    0.0000 C   0  0  0  0  0  0  0  2  0  0  0  0
   -0.7145   -0.8250    0.0000 C   0  0  0  0  0  0  0  2  0  0  0  0
   -0.7145    0.0000    0.0000 C   0  0  0  0  0  0  0  2  0  0  0  0
    0.0000    0.4125    0.0000 C   0  0  0  0  0  0  0  2  0  0  0  0
    0.0000    1.2375    0.0000 Br  0  0  0  0  0  0  0  2  0  0  0  0
   -1.4289   -1.2375    0.0000 Br  0  0  0  0  0  0  0  2  0  0  0  0
    1.4289   -1.2375    0.0000 Br  0  0  0  0  0  0  0  2  0  0  0  0
  1  2  1  0        0
  2  3  4  0        0
  3  4  4  0        0
  4  5  4  0        0
  5  6  4  0        0
  6  7  4  0        0
  2  7  4  0        0
  7  8  1  0        0
  5  9  1  0        0
  3 10  1  0        0
M  END
>  <CAS RN>
147820

>  <SMILES>
Nc1c(cc(cc1Br)Br)Br

>  <Measured or Estimated Log10(mmol/L)>
-2.284199393

$$$$

CDXL12

 16 16  0  0  0  0  0  0  0  0999 V2000
    1.4289   -0.6188    0.0000 C   0  0  0  0  0  0  0  2  0  0  0  0
    0.7145   -0.2062    0.0000 C   0  0  0  0  0  0  0  2  0  0  0  0
    0.7145    0.6188    0.0000 C   0  0  0  0  0  0  0  2  0  0  0  0
    1.4289    1.0312    0.0000 C   0  0  0  0  0  0  0  2  0  0  0  0
    2.1434    0.6188    0.0000 N   0  0  0  0  0  0  0  2  0  0  0  0
    1.4289    1.8563    0.0000 O   0  0  0  0  0  0  0  2  0  0  0  0
    0.0000    1.0313    0.0000 C   0  0  0  0  0  0  0  2  0  0  0  0
   -0.7145    0.6187    0.0000 C   0  0  0  0  0  0  0  2  0  0  0  0
   -1.4289    1.0312    0.0000 N   0  0  0  0  0  0  0  2  0  0  0  0
   -1.4289    1.8562    0.0000 O   0  0  0  0  0  0  0  2  0  0  0  0
   -2.1434    0.6187    0.0000 O   0  0  0  0  0  0  0  2  0  0  0  0
   -0.7145   -0.2063    0.0000 C   0  0  0  0  0  0  0  2  0  0  0  0
    0.0000   -0.6188    0.0000 C   0  0  0  0  0  0  0  2  0  0  0  0
    0.0000   -1.4438    0.0000 N   0  0  0  0  0  0  0  2  0  0  0  0
   -0.7145   -1.8563    0.0000 O   0  0  0  0  0  0  0  2  0  0  0  0
    0.7145   -1.8562    0.0000 O   0  0  0  0  0  0  0  2  0  0  0  0
  1  2  1  0        0
  2  3  4  0        0
  3  4  1  0        0
  4  5  1  0        0
  4  6  2  0        0
  3  7  4  0        0
  7  8  4  0        0
  8  9  1  0        0
  9 10  2  0        0
  9 11  2  0        0
  8 12  4  0        0
 12 13  4  0        0
  2 13  4  0        0
 13 14  1  0        0
 14 15  2  0        0
 14 16  2  0        0
M  END
>  <CAS RN>
148016

>  <SMILES>
Cc1c(C(N)=O)cc(N(=O)=O)cc1N(=O)=O

>  <Measured or Estimated Log10(mmol/L)>
-0.135007296

$$$$

CDXL12

  9  8  0  0  0  0  0  0  0  0999 V2000
   -1.7862   -0.0000    0.0000 C   0  0  0  0  0  0  0  2  0  0  0  0
   -1.0717    0.4125    0.0000 C   0  0  0  0  0  0  0  2  0  0  0  0
   -0.3572   -0.0000    0.0000 N   0  0  0  0  0  0  0  2  0  0  0  0
   -0.3572   -0.8250    0.0000 C   0  0  0  0  0  0  0  2  0  0  0  0
   -1.0717   -1.2375    0.0000 C   0  0  0  0  0  0  0  2  0  0  0  0
    0.3572    0.4125    0.0000 C   0  0  0  0  0  0  0  2  0  0  0  0
    1.0717   -0.0000    0.0000 S   0  0  0  0  0  0  0  2  0  0  0  0
    1.7862    0.4125    0.0000 Na  0  0  0  0  0  0  0  2  0  0  0  0
    0.3572    1.2375    0.0000 S   0  0  0  0  0  0  0  2  0  0  0  0
  1  2  1  0        0
  2  3  1  0        0
  3  4  1  0        0
  4  5  1  0        0
  3  6  1  0        0
  6  7  1  0        0
  7  8  1  0        0
  6  9  2  0        0
M  END
>  <CAS RN>
148185

>  <SMILES>
CCN(CC)C(S[Na])=S

>  <Measured or Estimated Log10(mmol/L)>
-2.274614547

$$$$

CDXL12

  8  7  0  0  0  0  0  0  0  0999 V2000
   -0.3572   -0.2062    0.0000 C   0  0  0  0  0  0  0  2  0  0  0  0
   -0.3572   -1.0313    0.0000 C   0  0  0  0  0  0  0  2  0  0  0  0
   -1.0717    0.2062    0.0000 C   0  0  0  0  0  0  0  2  0  0  0  0
   -1.7862   -0.2062    0.0000 O   0  0  0  0  0  0  0  2  0  0  0  0
    0.3572    0.2062    0.0000 C   0  0  0  0  0  0  0  2  0  0  0  0
    0.3572    1.0313    0.0000 O   0  0  0  0  0  0  0  2  0  0  0  0
    1.0717   -0.2062    0.0000 C   0  0  0  0  0  0  0  2  0  0  0  0
    1.7862    0.2062    0.0000 C   0  0  0  0  0  0  0  2  0  0  0  0
  1  2  1  0        0
  1  3  1  0        0
  3  4  1  0        0
  1  5  1  0        0
  5  6  1  0        0
  5  7  1  0        0
  7  8  1  0        0
M  END
>  <CAS RN>
149315

>  <SMILES>
C(C)(CO)C(O)CC

>  <Measured or Estimated Log10(mmol/L)>
1.775967732

$$$$

CDXL12

 10 10  0  0  0  0  0  0  0  0999 V2000
    1.0717    1.2375    0.0000 O   0  0  0  0  0  0  0  2  0  0  0  0
    1.0717    0.4125    0.0000 C   0  0  0  0  0  0  0  2  0  0  0  0
    1.7862   -0.0000    0.0000 O   0  0  0  0  0  0  0  2  0  0  0  0
    0.3572   -0.0000    0.0000 C   0  0  0  0  0  0  0  2  0  0  0  0
   -0.3572    0.4125    0.0000 C   0  0  0  0  0  0  0  2  0  0  0  0
   -1.0717   -0.0000    0.0000 C   0  0  0  0  0  0  0  2  0  0  0  0
   -1.0717   -0.8250    0.0000 C   0  0  0  0  0  0  0  2  0  0  0  0
   -1.7862   -1.2375    0.0000 N   0  0  0  0  0  0  0  2  0  0  0  0
   -0.3572   -1.2375    0.0000 C   0  0  0  0  0  0  0  2  0  0  0  0
    0.3572   -0.8250    0.0000 C   0  0  0  0  0  0  0  2  0  0  0  0
  1  2  2  0        0
  2  3  1  0        0
  2  4  1  0        0
  4  5  4  0        0
  5  6  4  0        0
  6  7  4  0        0
  7  8  1  0        0
  7  9  4  0        0
  9 10  4  0        0
  4 10  4  0        0
M  END
>  <CAS RN>
150130

>  <SMILES>
O=C(O)c1ccc(N)cc1

>  <Measured or Estimated Log10(mmol/L)>
-0.305418028

$$$$

CDXL12

  9  9  0  0  0  0  0  0  0  0999 V2000
    1.0717   -0.8250    0.0000 O   0  0  0  0  0  0  0  2  0  0  0  0
    0.3572   -0.4125    0.0000 C   0  0  0  0  0  0  0  2  0  0  0  0
    0.3572    0.4125    0.0000 C   0  0  0  0  0  0  0  2  0  0  0  0
   -0.3572    0.8250    0.0000 C   0  0  0  0  0  0  0  2  0  0  0  0
   -1.0717    0.4125    0.0000 C   0  0  0  0  0  0  0  2  0  0  0  0
   -1.0717   -0.4125    0.0000 C   0  0  0  0  0  0  0  2  0  0  0  0
   -1.7862   -0.8250    0.0000 O   0  0  0  0  0  0  0  2  0  0  0  0
   -0.3572   -0.8250    0.0000 C   0  0  0  0  0  0  0  2  0  0  0  0
    1.7862   -0.4125    0.0000 C   0  0  0  0  0  0  0  2  0  0  0  0
  1  2  1  0        0
  2  3  4  0        0
  3  4  4  0        0
  4  5  4  0        0
  5  6  4  0        0
  6  7  1  0        0
  6  8  4  0        0
  2  8  4  0        0
  1  9  1  0        0
M  END
>  <CAS RN>
150196

>  <SMILES>
O(c1cccc(O)c1)C

>  <Measured or Estimated Log10(mmol/L)>
-0.480066421

$$$$

CDXL12

  9  9  0  0  0  0  0  0  0  0999 V2000
    1.0717   -0.8250    0.0000 O   0  0  0  0  0  0  0  2  0  0  0  0
    0.3572   -0.4125    0.0000 C   0  0  0  0  0  0  0  2  0  0  0  0
   -0.3572   -0.8250    0.0000 C   0  0  0  0  0  0  0  2  0  0  0  0
   -1.0717   -0.4125    0.0000 C   0  0  0  0  0  0  0  2  0  0  0  0
   -1.0717    0.4125    0.0000 C   0  0  0  0  0  0  0  2  0  0  0  0
   -1.7862    0.8250    0.0000 O   0  0  0  0  0  0  0  2  0  0  0  0
   -0.3572    0.8250    0.0000 C   0  0  0  0  0  0  0  2  0  0  0  0
    0.3572    0.4125    0.0000 C   0  0  0  0  0  0  0  2  0  0  0  0
    1.7862   -0.4125    0.0000 C   0  0  0  0  0  0  0  2  0  0  0  0
  1  2  1  0        0
  2  3  4  0        0
  3  4  4  0        0
  4  5  4  0        0
  5  6  1  0        0
  5  7  4  0        0
  7  8  4  0        0
  2  8  4  0        0
  1  9  1  0        0
M  END
>  <CAS RN>
150765

>  <SMILES>
O(c1ccc(O)cc1)C

>  <Measured or Estimated Log10(mmol/L)>
-1.1447742

$$$$

CDXL12

 18 17  0  0  0  0  0  0  0  0999 V2000
   -5.3585   -0.4125    0.0000 C   0  0  0  0  0  0  0  2  0  0  0  0
   -4.6441   -0.0000    0.0000 C   0  0  0  0  0  0  0  2  0  0  0  0
   -3.9296   -0.4125    0.0000 C   0  0  0  0  0  0  0  2  0  0  0  0
   -3.2151   -0.0000    0.0000 C   0  0  0  0  0  0  0  2  0  0  0  0
   -2.5006   -0.4125    0.0000 C   0  0  0  0  0  0  0  2  0  0  0  0
   -1.7862   -0.0000    0.0000 C   0  0  0  0  0  0  0  2  0  0  0  0
   -1.0717   -0.4125    0.0000 C   0  0  0  0  0  0  0  2  0  0  0  0
   -0.3572   -0.0000    0.0000 C   0  0  0  0  0  0  0  2  0  0  0  0
    0.3572   -0.4125    0.0000 C   0  0  0  0  0  0  0  2  0  0  0  0
    1.0717   -0.0000    0.0000 C   0  0  0  0  0  0  0  2  0  0  0  0
    1.7862   -0.4125    0.0000 C   0  0  0  0  0  0  0  2  0  0  0  0
    2.5006   -0.0000    0.0000 C   0  0  0  0  0  0  0  2  0  0  0  0
    3.2151   -0.4125    0.0000 O   0  0  0  0  0  0  0  2  0  0  0  0
    3.9296    0.0000    0.0000 S   0  0  0  0  0  0  0  2  0  0  0  0
    4.3421   -0.7145    0.0000 O   0  0  0  0  0  0  0  2  0  0  0  0
    3.5171    0.7145    0.0000 O   0  0  0  0  0  0  0  2  0  0  0  0
    4.6441    0.4125    0.0000 O   0  0  0  0  0  0  0  2  0  0  0  0
    5.3585   -0.0000    0.0000 Na  0  0  0  0  0  0  0  2  0  0  0  0
  1  2  1  0        0
  2  3  1  0        0
  3  4  1  0        0
  4  5  1  0        0
  5  6  1  0        0
  6  7  1  0        0
  7  8  1  0        0
  8  9  1  0        0
  9 10  1  0        0
 10 11  1  0        0
 11 12  1  0        0
 12 13  1  0        0
 13 14  1  0        0
 14 15  2  0        0
 14 16  2  0        0
 14 17  1  0        0
 17 18  1  0        0
M  END
>  <CAS RN>
151213

>  <SMILES>
CCCCCCCCCCCCOS(=O)(=O)O[Na]

>  <Measured or Estimated Log10(mmol/L)>
-1.422541652

$$$$

CDXL12

  3  2  0  0  0  0  0  0  0  0999 V2000
    0.8250    0.0000    0.0000 K   0  0  0  0  0  0  0  2  0  0  0  0
    0.0000    0.0000    0.0000 C   0  0  0  0  0  0  0  2  0  0  0  0
   -0.8250    0.0000    0.0000 N   0  0  0  0  0  0  0  2  0  0  0  0
  1  2  1  0        0
  2  3  3  0        0
M  END
>  <CAS RN>
151508

>  <SMILES>
[K]C#N

>  <Measured or Estimated Log10(mmol/L)>
-1.512657719

$$$$

CDXL12

  3  3  0  0  0  0  0  0  0  0999 V2000
   -0.4125   -0.3572    0.0000 N   0  0  0  0  0  0  0  2  0  0  0  0
    0.0000    0.3572    0.0000 C   0  0  0  0  0  0  0  2  0  0  0  0
    0.4125   -0.3572    0.0000 C   0  0  0  0  0  0  0  2  0  0  0  0
  1  2  1  0        0
  2  3  1  0        0
  1  3  1  0        0
M  END
>  <CAS RN>
151564

>  <SMILES>
N1CC1

>  <Measured or Estimated Log10(mmol/L)>
-0.8027919

$$$$

CDXL12

  4  3  0  0  0  0  0  0  0  0999 V2000
   -0.3572   -0.2062    0.0000 C   0  0  0  0  0  0  0  2  0  0  0  0
    0.3572    0.2062    0.0000 C   0  0  0  0  0  0  0  2  0  0  0  0
    1.0717   -0.2062    0.0000 Cl  0  0  0  0  0  0  0  2  0  0  0  0
   -1.0717    0.2062    0.0000 Cl  0  0  0  0  0  0  0  2  0  0  0  0
  1  2  2  0        0
  2  3  1  0        0
  1  4  1  0        0
M  END
>  <CAS RN>
156605

>  <SMILES>
C(=CCl)Cl

>  <Measured or Estimated Log10(mmol/L)>
0.355901746

$$$$

CDXL12

 16 19  0  0  0  0  0  0  0  0999 V2000
    0.6674   -0.0654    0.0000 C   0  0  0  0  0  0  0  2  0  0  0  0
    1.4744    0.1062    0.0000 C   0  0  0  0  0  0  0  2  0  0  0  0
    1.6129    0.9194    0.0000 C   0  0  0  0  0  0  0  2  0  0  0  0
    0.9923    1.4631    0.0000 C   0  0  0  0  0  0  0  2  0  0  0  0
    0.2043    1.2188    0.0000 C   0  0  0  0  0  0  0  2  0  0  0  0
    0.0000    0.4195    0.0000 C   0  0  0  0  0  0  0  2  0  0  0  0
   -0.6674   -0.0654    0.0000 C   0  0  0  0  0  0  0  2  0  0  0  0
   -0.4125   -0.8500    0.0000 C   0  0  0  0  0  0  0  2  0  0  0  0
   -0.9645   -1.4631    0.0000 C   0  0  0  0  0  0  0  2  0  0  0  0
   -1.7715   -1.2916    0.0000 C   0  0  0  0  0  0  0  2  0  0  0  0
   -2.0264   -0.5069    0.0000 C   0  0  0  0  0  0  0  2  0  0  0  0
   -1.4744    0.1062    0.0000 C   0  0  0  0  0  0  0  2  0  0  0  0
    0.4125   -0.8500    0.0000 C   0  0  0  0  0  0  0  2  0  0  0  0
    0.9645   -1.4631    0.0000 C   0  0  0  0  0  0  0  2  0  0  0  0
    1.7715   -1.2916    0.0000 C   0  0  0  0  0  0  0  2  0  0  0  0
    2.0264   -0.5069    0.0000 C   0  0  0  0  0  0  0  2  0  0  0  0
  1  2  4  0        0
  2  3  4  0        0
  3  4  4  0        0
  4  5  4  0        0
  5  6  4  0        0
  1  6  4  0        0
  6  7  4  0        0
  7  8  4  0        0
  8  9  4  0        0
  9 10  4  0        0
 10 11  4  0        0
 11 12  4  0        0
  7 12  4  0        0
  8 13  4  0        0
  1 13  4  0        0
 13 14  4  0        0
 14 15  4  0        0
 15 16  4  0        0
  2 16  4  0        0
M  END
>  <CAS RN>
206440

>  <SMILES>
c12c3cccc1c1c(cccc1)c2ccc3

>  <Measured or Estimated Log10(mmol/L)>
-3.281826427

$$$$

CDXL12

 10 11  0  0  0  0  0  0  0  0999 V2000
    1.4289   -0.4125    0.0000 N   0  0  0  0  0  0  0  2  0  0  0  0
    1.4289    0.4125    0.0000 N   0  0  0  0  0  0  0  2  0  0  0  0
    0.7145    0.8250    0.0000 C   0  0  0  0  0  0  0  2  0  0  0  0
    0.0000    0.4125    0.0000 C   0  0  0  0  0  0  0  2  0  0  0  0
    0.0000   -0.4125    0.0000 C   0  0  0  0  0  0  0  2  0  0  0  0
   -0.7145   -0.8250    0.0000 C   0  0  0  0  0  0  0  2  0  0  0  0
   -1.4289   -0.4125    0.0000 C   0  0  0  0  0  0  0  2  0  0  0  0
   -1.4289    0.4125    0.0000 C   0  0  0  0  0  0  0  2  0  0  0  0
   -0.7145    0.8250    0.0000 C   0  0  0  0  0  0  0  2  0  0  0  0
    0.7145   -0.8250    0.0000 C   0  0  0  0  0  0  0  2  0  0  0  0
  1  2  4  0        0
  2  3  4  0        0
  3  4  4  0        0
  4  5  4  0        0
  5  6  4  0        0
  6  7  4  0        0
  7  8  4  0        0
  8  9  4  0        0
  4  9  4  0        0
  5 10  4  0        0
  1 10  4  0        0
M  END
>  <CAS RN>
253521

>  <SMILES>
n1ncc2c(cccc2)c1

>  <Measured or Estimated Log10(mmol/L)>
0.533915849

$$$$

CDXL12

 14 16  0  0  0  0  0  0  0  0999 V2000
    0.0000    0.8250    0.0000 C   0  0  0  0  0  0  0  2  0  0  0  0
    0.7145    0.4125    0.0000 C   0  0  0  0  0  0  0  2  0  0  0  0
    1.4289    0.8250    0.0000 C   0  0  0  0  0  0  0  2  0  0  0  0
    2.1434    0.4125    0.0000 C   0  0  0  0  0  0  0  2  0  0  0  0
    2.1434   -0.4125    0.0000 C   0  0  0  0  0  0  0  2  0  0  0  0
    1.4289   -0.8250    0.0000 C   0  0  0  0  0  0  0  2  0  0  0  0
    0.7145   -0.4125    0.0000 C   0  0  0  0  0  0  0  2  0  0  0  0
    0.0000   -0.8250    0.0000 N   0  0  0  0  0  0  0  2  0  0  0  0
   -0.7145   -0.4125    0.0000 C   0  0  0  0  0  0  0  2  0  0  0  0
   -1.4289   -0.8250    0.0000 C   0  0  0  0  0  0  0  2  0  0  0  0
   -2.1434   -0.4125    0.0000 C   0  0  0  0  0  0  0  2  0  0  0  0
   -2.1434    0.4125    0.0000 C   0  0  0  0  0  0  0  2  0  0  0  0
   -1.4289    0.8250    0.0000 C   0  0  0  0  0  0  0  2  0  0  0  0
   -0.7145    0.4125    0.0000 C   0  0  0  0  0  0  0  2  0  0  0  0
  1  2  4  0        0
  2  3  4  0        0
  3  4  4  0        0
  4  5  4  0        0
  5  6  4  0        0
  6  7  4  0        0
  2  7  4  0        0
  7  8  4  0        0
  8  9  4  0        0
  9 10  4  0        0
 10 11  4  0        0
 11 12  4  0        0
 12 13  4  0        0
 13 14  4  0        0
  1 14  4  0        0
  9 14  4  0        0
M  END
>  <CAS RN>
260946

>  <SMILES>
c1c2ccccc2nc2ccccc12

>  <Measured or Estimated Log10(mmol/L)>
-1.941637458

$$$$

CDXL12

  5  5  0  0  0  0  0  0  0  0999 V2000
    0.4125    0.6348    0.0000 C   0  0  0  0  0  0  0  2  0  0  0  0
    0.6674   -0.1498    0.0000 C   0  0  0  0  0  0  0  2  0  0  0  0
   -0.0000   -0.6348    0.0000 C   0  0  0  0  0  0  0  2  0  0  0  0
   -0.6674   -0.1498    0.0000 C   0  0  0  0  0  0  0  2  0  0  0  0
   -0.4125    0.6348    0.0000 C   0  0  0  0  0  0  0  2  0  0  0  0
  1  2  1  0        0
  2  3  1  0        0
  3  4  1  0        0
  4  5  1  0        0
  1  5  1  0        0
M  END
>  <CAS RN>
287923

>  <SMILES>
C1CCCC1

>  <Measured or Estimated Log10(mmol/L)>
-0.82

$$$$

CDXL12

 16 16  0  0  0  0  0  0  0  0999 V2000
    2.8579   -0.4125    0.0000 C   0  0  0  0  0  0  0  2  0  0  0  0
    2.1434   -0.8250    0.0000 O   0  0  0  0  0  0  0  2  0  0  0  0
    1.4289   -0.4125    0.0000 P   0  0  0  0  0  0  0  2  0  0  0  0
    1.4289    0.4125    0.0000 S   0  0  0  0  0  0  0  2  0  0  0  0
    1.4289   -1.2375    0.0000 O   0  0  0  0  0  0  0  2  0  0  0  0
    2.1434   -1.6500    0.0000 C   0  0  0  0  0  0  0  2  0  0  0  0
    0.7145   -0.8250    0.0000 O   0  0  0  0  0  0  0  2  0  0  0  0
    0.0000   -0.4125    0.0000 C   0  0  0  0  0  0  0  2  0  0  0  0
   -0.7145   -0.8250    0.0000 C   0  0  0  0  0  0  0  2  0  0  0  0
   -1.4289   -0.4125    0.0000 C   0  0  0  0  0  0  0  2  0  0  0  0
   -1.4289    0.4125    0.0000 C   0  0  0  0  0  0  0  2  0  0  0  0
   -0.7145    0.8250    0.0000 C   0  0  0  0  0  0  0  2  0  0  0  0
    0.0000    0.4125    0.0000 C   0  0  0  0  0  0  0  2  0  0  0  0
   -2.1434    0.8250    0.0000 N   0  0  0  0  0  0  0  2  0  0  0  0
   -2.1434    1.6500    0.0000 O   0  0  0  0  0  0  0  2  0  0  0  0
   -2.8579    0.4125    0.0000 O   0  0  0  0  0  0  0  2  0  0  0  0
  1  2  1  0        0
  2  3  1  0        0
  3  4  2  0        0
  3  5  1  0        0
  5  6  1  0        0
  3  7  1  0        0
  7  8  1  0        0
  8  9  4  0        0
  9 10  4  0        0
 10 11  4  0        0
 11 12  4  0        0
 12 13  4  0        0
  8 13  4  0        0
 11 14  1  0        0
 14 15  2  0        0
 14 16  2  0        0
M  END
>  <CAS RN>
298000

>  <SMILES>
COP(=S)(OC)Oc1ccc(cc1)N(=O)=O

>  <Measured or Estimated Log10(mmol/L)>
-4.341117839

$$$$

CDXL12

 13 12  0  0  0  0  0  0  0  0999 V2000
    2.8579   -0.2062    0.0000 C   0  0  0  0  0  0  0  2  0  0  0  0
    2.1434   -0.6187    0.0000 C   0  0  0  0  0  0  0  2  0  0  0  0
    1.4289   -0.2062    0.0000 O   0  0  0  0  0  0  0  2  0  0  0  0
    0.7145   -0.6187    0.0000 P   0  0  0  0  0  0  0  2  0  0  0  0
    0.7145   -1.4437    0.0000 S   0  0  0  0  0  0  0  2  0  0  0  0
    0.7145    0.2063    0.0000 O   0  0  0  0  0  0  0  2  0  0  0  0
    1.4289    0.6188    0.0000 C   0  0  0  0  0  0  0  2  0  0  0  0
    1.4289    1.4437    0.0000 C   0  0  0  0  0  0  0  2  0  0  0  0
    0.0000   -0.2062    0.0000 S   0  0  0  0  0  0  0  2  0  0  0  0
   -0.7145   -0.6187    0.0000 C   0  0  0  0  0  0  0  2  0  0  0  0
   -1.4289   -0.2062    0.0000 S   0  0  0  0  0  0  0  2  0  0  0  0
   -2.1434   -0.6187    0.0000 C   0  0  0  0  0  0  0  2  0  0  0  0
   -2.8579   -0.2062    0.0000 C   0  0  0  0  0  0  0  2  0  0  0  0
  1  2  1  0        0
  2  3  1  0        0
  3  4  1  0        0
  4  5  2  0        0
  4  6  1  0        0
  6  7  1  0        0
  7  8  1  0        0
  4  9  1  0        0
  9 10  1  0        0
 10 11  1  0        0
 11 12  1  0        0
 12 13  1  0        0
M  END
>  <CAS RN>
298022

>  <SMILES>
CCOP(=S)(OCC)SCSCC

>  <Measured or Estimated Log10(mmol/L)>
-5.552387102

$$$$

CDXL12

 14 13  0  0  0  0  0  0  0  0999 V2000
    3.2151   -0.2062    0.0000 C   0  0  0  0  0  0  0  2  0  0  0  0
    2.5006   -0.6187    0.0000 C   0  0  0  0  0  0  0  2  0  0  0  0
    1.7862   -0.2062    0.0000 O   0  0  0  0  0  0  0  2  0  0  0  0
    1.0717   -0.6187    0.0000 P   0  0  0  0  0  0  0  2  0  0  0  0
    1.0717   -1.4437    0.0000 S   0  0  0  0  0  0  0  2  0  0  0  0
    1.0717    0.2063    0.0000 O   0  0  0  0  0  0  0  2  0  0  0  0
    1.7862    0.6187    0.0000 C   0  0  0  0  0  0  0  2  0  0  0  0
    1.7862    1.4437    0.0000 C   0  0  0  0  0  0  0  2  0  0  0  0
    0.3572   -0.2062    0.0000 S   0  0  0  0  0  0  0  2  0  0  0  0
   -0.3572   -0.6187    0.0000 C   0  0  0  0  0  0  0  2  0  0  0  0
   -1.0717   -0.2062    0.0000 C   0  0  0  0  0  0  0  2  0  0  0  0
   -1.7862   -0.6187    0.0000 S   0  0  0  0  0  0  0  2  0  0  0  0
   -2.5006   -0.2062    0.0000 C   0  0  0  0  0  0  0  2  0  0  0  0
   -3.2151   -0.6187    0.0000 C   0  0  0  0  0  0  0  2  0  0  0  0
  1  2  1  0        0
  2  3  1  0        0
  3  4  1  0        0
  4  5  2  0        0
  4  6  1  0        0
  6  7  1  0        0
  7  8  1  0        0
  4  9  1  0        0
  9 10  1  0        0
 10 11  1  0        0
 11 12  1  0        0
 12 13  1  0        0
 13 14  1  0        0
M  END
>  <CAS RN>
298044

>  <SMILES>
CCOP(=S)(OCC)SCCSCC

>  <Measured or Estimated Log10(mmol/L)>
-4.129347

$$$$

CDXL12

  9  8  0  0  0  0  0  0  0  0999 V2000
    0.7145   -0.4125    0.0000 O   0  0  0  0  0  0  0  2  0  0  0  0
    0.0000   -0.0000    0.0000 P   0  0  0  0  0  0  0  2  0  0  0  0
   -0.7145   -0.4125    0.0000 O   0  0  0  0  0  0  0  2  0  0  0  0
   -1.4289   -0.0000    0.0000 C   0  0  0  0  0  0  0  2  0  0  0  0
   -2.1434   -0.4125    0.0000 C   0  0  0  0  0  0  0  2  0  0  0  0
    0.0000   -0.8250    0.0000 S   0  0  0  0  0  0  0  2  0  0  0  0
    0.0000    0.8250    0.0000 S   0  0  0  0  0  0  0  2  0  0  0  0
    1.4289    0.0000    0.0000 C   0  0  0  0  0  0  0  2  0  0  0  0
    2.1434   -0.4125    0.0000 C   0  0  0  0  0  0  0  2  0  0  0  0
  1  2  1  0        0
  2  3  1  0        0
  3  4  1  0        0
  4  5  1  0        0
  2  6  1  0        0
  2  7  2  0        0
  1  8  1  0        0
  8  9  1  0        0
M  END
>  <CAS RN>
298066

>  <SMILES>
O(P(OCC)(S)=S)CC

>  <Measured or Estimated Log10(mmol/L)>
-2.9272274

$$$$

CDXL12

 21 20  0  0  0  0  0  0  0  0999 V2000
   -5.0013    0.0000    0.0000 C   0  0  0  0  0  0  0  2  0  0  0  0
   -4.2868    0.4125    0.0000 C   0  0  0  0  0  0  0  2  0  0  0  0
   -3.5724    0.0000    0.0000 C   0  0  0  0  0  0  0  2  0  0  0  0
   -2.8579    0.4125    0.0000 C   0  0  0  0  0  0  0  2  0  0  0  0
   -2.1434    0.0000    0.0000 C   0  0  0  0  0  0  0  2  0  0  0  0
   -2.1434   -0.8250    0.0000 C   0  0  0  0  0  0  0  2  0  0  0  0
   -2.8579   -1.2375    0.0000 C   0  0  0  0  0  0  0  2  0  0  0  0
   -1.4289    0.4125    0.0000 C   0  0  0  0  0  0  0  2  0  0  0  0
   -0.7145    0.0000    0.0000 O   0  0  0  0  0  0  0  2  0  0  0  0
   -0.0000    0.4125    0.0000 P   0  0  0  0  0  0  0  2  0  0  0  0
   -0.0000    1.2375    0.0000 O   0  0  0  0  0  0  0  2  0  0  0  0
   -0.0000   -0.4125    0.0000 O   0  0  0  0  0  0  0  2  0  0  0  0
    0.7145    0.0000    0.0000 O   0  0  0  0  0  0  0  2  0  0  0  0
    1.4289    0.4125    0.0000 C   0  0  0  0  0  0  0  2  0  0  0  0
    2.1434    0.0000    0.0000 C   0  0  0  0  0  0  0  2  0  0  0  0
    2.1434   -0.8250    0.0000 C   0  0  0  0  0  0  0  2  0  0  0  0
    2.8579   -1.2375    0.0000 C   0  0  0  0  0  0  0  2  0  0  0  0
    2.8579    0.4125    0.0000 C   0  0  0  0  0  0  0  2  0  0  0  0
    3.5724    0.0000    0.0000 C   0  0  0  0  0  0  0  2  0  0  0  0
    4.2868    0.4125    0.0000 C   0  0  0  0  0  0  0  2  0  0  0  0
    5.0013    0.0000    0.0000 C   0  0  0  0  0  0  0  2  0  0  0  0
  1  2  1  0        0
  2  3  1  0        0
  3  4  1  0        0
  4  5  1  0        0
  5  6  1  0        0
  6  7  1  0        0
  5  8  1  0        0
  8  9  1  0        0
  9 10  1  0        0
 10 11  2  0        0
 10 12  1  0        0
 10 13  1  0        0
 13 14  1  0        0
 14 15  1  0        0
 15 16  1  0        0
 16 17  1  0        0
 15 18  1  0        0
 18 19  1  0        0
 19 20  1  0        0
 20 21  1  0        0
M  END
>  <CAS RN>
298077

>  <SMILES>
CCCCC(CC)COP(=O)(O)OCC(CC)CCCC

>  <Measured or Estimated Log10(mmol/L)>
-0.718036998

$$$$

CDXL12

  5  4  0  0  0  0  0  0  0  0999 V2000
   -1.0717   -0.2062    0.0000 K   0  0  0  0  0  0  0  2  0  0  0  0
   -0.3572   -0.6187    0.0000 O   0  0  0  0  0  0  0  2  0  0  0  0
    0.3572   -0.2062    0.0000 C   0  0  0  0  0  0  0  2  0  0  0  0
    0.3572    0.6187    0.0000 O   0  0  0  0  0  0  0  2  0  0  0  0
    1.0717   -0.6187    0.0000 O   0  0  0  0  0  0  0  2  0  0  0  0
  1  2  1  0        0
  2  3  1  0        0
  3  4  2  0        0
  3  5  1  0        0
M  END
>  <CAS RN>
298146

>  <SMILES>
[K]OC(=O)O

>  <Measured or Estimated Log10(mmol/L)>
0.809737713

$$$$

CDXL12

 13 12  0  0  0  0  0  0  0  0999 V2000
    2.1434    0.2062    0.0000 C   0  0  0  0  0  0  0  2  0  0  0  0
    1.4289   -0.2062    0.0000 O   0  0  0  0  0  0  0  2  0  0  0  0
    0.7145    0.2062    0.0000 P   0  0  0  0  0  0  0  2  0  0  0  0
    0.7145    1.0312    0.0000 O   0  0  0  0  0  0  0  2  0  0  0  0
    0.7145   -0.6187    0.0000 O   0  0  0  0  0  0  0  2  0  0  0  0
    1.4289   -1.0312    0.0000 C   0  0  0  0  0  0  0  2  0  0  0  0
    0.0000   -0.2062    0.0000 O   0  0  0  0  0  0  0  2  0  0  0  0
   -0.7145    0.2062    0.0000 C   0  0  0  0  0  0  0  2  0  0  0  0
   -0.7145    1.0312    0.0000 Br  0  0  0  0  0  0  0  2  0  0  0  0
   -1.4289   -0.2062    0.0000 C   0  0  0  0  0  0  0  2  0  0  0  0
   -1.8414   -0.9207    0.0000 Cl  0  0  0  0  0  0  0  2  0  0  0  0
   -1.0164   -0.9207    0.0000 Cl  0  0  0  0  0  0  0  2  0  0  0  0
   -2.1434    0.2063    0.0000 Br  0  0  0  0  0  0  0  2  0  0  0  0
  1  2  1  0        0
  2  3  1  0        0
  3  4  2  0        0
  3  5  1  0        0
  5  6  1  0        0
  3  7  1  0        0
  7  8  1  0        0
  8  9  1  0        0
  8 10  1  0        0
 10 11  1  0        0
 10 12  1  0        0
 10 13  1  0        0
M  END
>  <CAS RN>
300765

>  <SMILES>
COP(=O)(OC)OC(Br)C(Cl)(Cl)Br

>  <Measured or Estimated Log10(mmol/L)>
-6.53813311

$$$$

CDXL12

  4  3  0  0  0  0  0  0  0  0999 V2000
    0.0000   -0.2062    0.0000 C   0  0  0  0  0  0  0  2  0  0  0  0
   -0.7145   -0.6187    0.0000 C   0  0  0  0  0  0  0  2  0  0  0  0
    0.0000    0.6188    0.0000 O   0  0  0  0  0  0  0  2  0  0  0  0
    0.7145   -0.6188    0.0000 O   0  0  0  0  0  0  0  2  0  0  0  0
  1  2  1  0        0
  1  3  2  0        0
  1  4  1  0        0
M  END
>  <CAS RN>
301042

>  <SMILES>
C(C)(=O)O

>  <Measured or Estimated Log10(mmol/L)>
-1.348775196

$$$$

CDXL12

  2  1  0  0  0  0  0  0  0  0999 V2000
   -0.4125    0.0000    0.0000 N   0  0  0  0  0  0  0  2  0  0  0  0
    0.4125    0.0000    0.0000 N   0  0  0  0  0  0  0  2  0  0  0  0
  1  2  1  0        0
M  END
>  <CAS RN>
302012

>  <SMILES>
NN

>  <Measured or Estimated Log10(mmol/L)>
-1.953096

$$$$

CDXL12

  3  2  0  0  0  0  0  0  0  0999 V2000
    0.8250    0.0000    0.0000 S   0  0  0  0  0  0  0  2  0  0  0  0
    0.0000    0.0000    0.0000 C   0  0  0  0  0  0  0  2  0  0  0  0
   -0.8250    0.0000    0.0000 N   0  0  0  0  0  0  0  2  0  0  0  0
  1  2  1  0        0
  2  3  3  0        0
M  END
>  <CAS RN>
302045

>  <SMILES>
SC#N

>  <Measured or Estimated Log10(mmol/L)>
-0.012602098

$$$$

CDXL12

 44 47  0  0  0  0  0  0  0  0999 V2000
   -3.9296   -0.4125    0.0000 O   0  0  0  0  0  0  0  2  0  0  0  0
   -4.6441   -0.8250    0.0000 C   0  0  0  0  0  0  0  2  0  0  0  0
   -4.2316   -1.5395    0.0000 C   0  0  0  0  0  0  0  2  0  0  0  0
   -5.0566   -1.5395    0.0000 C   0  0  0  0  0  0  0  2  0  0  0  0
   -5.3585   -0.4125    0.0000 C   0  0  0  0  0  0  0  2  0  0  0  0
   -6.0730   -0.8250    0.0000 O   0  0  0  0  0  0  0  2  0  0  0  0
   -6.7875   -0.4125    0.0000 C   0  0  0  0  0  0  0  2  0  0  0  0
   -5.3585    0.4125    0.0000 C   0  0  0  0  0  0  0  2  0  0  0  0
   -6.0730    0.8250    0.0000 O   0  0  0  0  0  0  0  2  0  0  0  0
   -6.0730    1.6500    0.0000 C   0  0  0  0  0  0  0  2  0  0  0  0
   -5.3585    2.0625    0.0000 O   0  0  0  0  0  0  0  2  0  0  0  0
   -6.7875    2.0625    0.0000 N   0  0  0  0  0  0  0  2  0  0  0  0
   -4.6441    0.8250    0.0000 C   0  0  0  0  0  0  0  2  0  0  0  0
   -4.6441    1.6500    0.0000 O   0  0  0  0  0  0  0  2  0  0  0  0
   -3.9296    0.4125    0.0000 C   0  0  0  0  0  0  0  2  0  0  0  0
   -3.2151    0.8250    0.0000 O   0  0  0  0  0  0  0  2  0  0  0  0
   -2.5006    0.4125    0.0000 C   0  0  0  0  0  0  0  2  0  0  0  0
   -2.5006   -0.4125    0.0000 C   0  0  0  0  0  0  0  2  0  0  0  0
   -1.7862   -0.8250    0.0000 C   0  0  0  0  0  0  0  2  0  0  0  0
   -1.0717   -0.4125    0.0000 C   0  0  0  0  0  0  0  2  0  0  0  0
   -0.3572   -0.8250    0.0000 C   0  0  0  0  0  0  0  2  0  0  0  0
   -0.3572   -1.6500    0.0000 O   0  0  0  0  0  0  0  2  0  0  0  0
    0.3572   -0.4125    0.0000 C   0  0  0  0  0  0  0  2  0  0  0  0
    1.0717   -0.8250    0.0000 N   0  0  0  0  0  0  0  2  0  0  0  0
    1.7862   -0.4125    0.0000 C   0  0  0  0  0  0  0  2  0  0  0  0
    1.7862    0.4125    0.0000 O   0  0  0  0  0  0  0  2  0  0  0  0
    2.5006   -0.8250    0.0000 C   0  0  0  0  0  0  0  2  0  0  0  0
    2.5006   -1.6500    0.0000 C   0  0  0  0  0  0  0  2  0  0  0  0
    3.2151   -2.0625    0.0000 C   0  0  0  0  0  0  0  2  0  0  0  0
    3.9296   -1.6500    0.0000 C   0  0  0  0  0  0  0  2  0  0  0  0
    4.6441   -2.0625    0.0000 O   0  0  0  0  0  0  0  2  0  0  0  0
    3.9296   -0.8250    0.0000 C   0  0  0  0  0  0  0  2  0  0  0  0
    4.6441   -0.4125    0.0000 C   0  0  0  0  0  0  0  2  0  0  0  0
    5.3585   -0.8250    0.0000 C   0  0  0  0  0  0  0  2  0  0  0  0
    6.0730   -0.4125    0.0000 C   0  0  0  0  0  0  0  2  0  0  0  0
    6.0730    0.4125    0.0000 C   0  0  0  0  0  0  0  2  0  0  0  0
    6.7875   -0.8250    0.0000 C   0  0  0  0  0  0  0  2  0  0  0  0
    3.2151   -0.4125    0.0000 C   0  0  0  0  0  0  0  2  0  0  0  0
    0.3572    0.4125    0.0000 C   0  0  0  0  0  0  0  2  0  0  0  0
    1.0717    0.8250    0.0000 O   0  0  0  0  0  0  0  2  0  0  0  0
   -0.3572    0.8250    0.0000 O   0  0  0  0  0  0  0  2  0  0  0  0
   -1.0717    0.4125    0.0000 C   0  0  0  0  0  0  0  2  0  0  0  0
   -1.7862    0.8250    0.0000 C   0  0  0  0  0  0  0  2  0  0  0  0
   -1.7862    1.6500    0.0000 C   0  0  0  0  0  0  0  2  0  0  0  0
  1  2  1  0        0
  2  3  1  0        0
  2  4  1  0        0
  2  5  1  0        0
  5  6  1  0        0
  6  7  1  0        0
  5  8  1  0        0
  8  9  1  0        0
  9 10  1  0        0
 10 11  2  0        0
 10 12  1  0        0
  8 13  1  0        0
 13 14  1  0        0
 13 15  1  0        0
  1 15  1  0        0
 15 16  1  0        0
 16 17  1  0        0
 17 18  4  0        0
 18 19  4  0        0
 19 20  4  0        0
 20 21  1  0        0
 21 22  1  0        0
 21 23  2  0        0
 23 24  1  0        0
 24 25  1  0        0
 25 26  2  0        0
 25 27  1  0        0
 27 28  4  0        0
 28 29  4  0        0
 29 30  4  0        0
 30 31  1  0        0
 30 32  4  0        0
 32 33  1  0        0
 33 34  1  0        0
 34 35  2  0        0
 35 36  1  0        0
 35 37  1  0        0
 32 38  4  0        0
 27 38  4  0        0
 23 39  1  0        0
 39 40  2  0        0
 39 41  1  0        0
 41 42  1  0        0
 20 42  4  0        0
 42 43  4  0        0
 17 43  4  0        0
 43 44  1  0        0
M  END
>  <CAS RN>
303811

>  <SMILES>
O1C(C)(C)C(OC)C(OC(=O)N)C(O)C1Oc1ccc2/C(/O)=C(/NC(=O)c3ccc(O)c(CC=C(C)C)c3)\C(=O)Oc2c1C

>  <Measured or Estimated Log10(mmol/L)>
-0.099670707

$$$$

CDXL12

  7  6  0  0  0  0  0  0  0  0999 V2000
    1.0717    0.2062    0.0000 F   0  0  0  0  0  0  0  2  0  0  0  0
    0.3572   -0.2062    0.0000 C   0  0  0  0  0  0  0  2  0  0  0  0
    0.3572   -1.0313    0.0000 F   0  0  0  0  0  0  0  2  0  0  0  0
    1.0717   -0.6188    0.0000 F   0  0  0  0  0  0  0  2  0  0  0  0
   -0.3572    0.2062    0.0000 C   0  0  0  0  0  0  0  2  0  0  0  0
   -1.0717   -0.2062    0.0000 Cl  0  0  0  0  0  0  0  2  0  0  0  0
   -0.3572    1.0313    0.0000 Cl  0  0  0  0  0  0  0  2  0  0  0  0
  1  2  1  0        0
  2  3  1  0        0
  2  4  1  0        0
  2  5  1  0        0
  5  6  1  0        0
  5  7  1  0        0
M  END
>  <CAS RN>
306832

>  <SMILES>
FC(F)(F)C(Cl)Cl

>  <Measured or Estimated Log10(mmol/L)>
-0.954043753

$$$$

CDXL12

 18 21  0  0  0  0  0  0  0  0999 V2000
    1.7862   -0.8250    0.0000 Cl  0  0  0  0  0  0  0  2  0  0  0  0
    1.0717   -0.4125    0.0000 C   0  0  0  0  0  0  0  2  0  0  0  0
    1.0717    0.4125    0.0000 C   0  0  0  0  0  0  0  2  0  0  0  0
    1.7862    0.8250    0.0000 Cl  0  0  0  0  0  0  0  2  0  0  0  0
    0.3572    0.8250    0.0000 C   0  0  0  0  0  0  0  2  0  0  0  0
    0.3572    1.6500    0.0000 Cl  0  0  0  0  0  0  0  2  0  0  0  0
   -0.3572    0.4125    0.0000 C   0  0  0  0  0  0  0  2  0  0  0  0
   -1.0717    0.8250    0.0000 C   0  0  0  0  0  0  0  2  0  0  0  0
   -1.4082    0.0000    0.0000 C   0  0  0  0  0  0  0  2  0  0  0  0
   -1.0717   -0.8250    0.0000 C   0  0  0  0  0  0  0  2  0  0  0  0
   -1.7862   -0.4125    0.0000 C   0  0  0  0  0  0  0  2  0  0  0  0
   -1.7862    0.4125    0.0000 C   0  0  0  0  0  0  0  2  0  0  0  0
   -0.3572   -0.4125    0.0000 C   0  0  0  0  0  0  0  2  0  0  0  0
    0.3572   -0.8250    0.0000 C   0  0  0  0  0  0  0  2  0  0  0  0
    0.3572   -1.6500    0.0000 Cl  0  0  0  0  0  0  0  2  0  0  0  0
    0.6938   -0.0000    0.0000 C   0  0  0  0  0  0  0  2  0  0  0  0
    1.4082   -0.4125    0.0000 Cl  0  0  0  0  0  0  0  2  0  0  0  0
    1.4082    0.4125    0.0000 Cl  0  0  0  0  0  0  0  2  0  0  0  0
  1  2  1  0        0
  2  3  2  0        0
  3  4  1  0        0
  3  5  1  0        0
  5  6  1  0        0
  5  7  1  0        0
  7  8  1  0        0
  8  9  1  0        0
  9 10  1  0        0
 10 11  1  0        0
 11 12  2  0        0
  8 12  1  0        0
 10 13  1  0        0
  7 13  1  0        0
 13 14  1  0        0
  2 14  1  0        0
 14 15  1  0        0
 14 16  1  0        0
  5 16  1  0        0
 16 17  1  0        0
 16 18  1  0        0
M  END
>  <CAS RN>
309002

>  <SMILES>
Cl\C\1=C(/Cl)\C2(Cl)C3C\4CC(\C=C4)C3C1(Cl)C2(Cl)Cl

>  <Measured or Estimated Log10(mmol/L)>
-2.562190525

$$$$

CDXL12

 18 18  0  0  0  0  0  0  0  0999 V2000
    2.8579   -0.8250    0.0000 C   0  0  0  0  0  0  0  2  0  0  0  0
    2.1434   -1.2375    0.0000 C   0  0  0  0  0  0  0  2  0  0  0  0
    1.4289   -0.8250    0.0000 O   0  0  0  0  0  0  0  2  0  0  0  0
    0.7145   -1.2375    0.0000 P   0  0  0  0  0  0  0  2  0  0  0  0
    0.7145   -2.0625    0.0000 O   0  0  0  0  0  0  0  2  0  0  0  0
   -0.0000   -0.8250    0.0000 O   0  0  0  0  0  0  0  2  0  0  0  0
   -0.7145   -1.2375    0.0000 C   0  0  0  0  0  0  0  2  0  0  0  0
   -1.4289   -0.8250    0.0000 C   0  0  0  0  0  0  0  2  0  0  0  0
    0.7145   -0.4125    0.0000 O   0  0  0  0  0  0  0  2  0  0  0  0
   -0.0000    0.0000    0.0000 C   0  0  0  0  0  0  0  2  0  0  0  0
   -0.7145   -0.4125    0.0000 C   0  0  0  0  0  0  0  2  0  0  0  0
   -1.4289    0.0000    0.0000 C   0  0  0  0  0  0  0  2  0  0  0  0
   -1.4289    0.8250    0.0000 C   0  0  0  0  0  0  0  2  0  0  0  0
   -0.7145    1.2375    0.0000 C   0  0  0  0  0  0  0  2  0  0  0  0
   -0.0000    0.8250    0.0000 C   0  0  0  0  0  0  0  2  0  0  0  0
   -2.1434    1.2375    0.0000 N   0  0  0  0  0  0  0  2  0  0  0  0
   -2.1434    2.0625    0.0000 O   0  0  0  0  0  0  0  2  0  0  0  0
   -2.8579    0.8250    0.0000 O   0  0  0  0  0  0  0  2  0  0  0  0
  1  2  1  0        0
  2  3  1  0        0
  3  4  1  0        0
  4  5  2  0        0
  4  6  1  0        0
  6  7  1  0        0
  7  8  1  0        0
  4  9  1  0        0
  9 10  1  0        0
 10 11  4  0        0
 11 12  4  0        0
 12 13  4  0        0
 13 14  4  0        0
 14 15  4  0        0
 10 15  4  0        0
 13 16  1  0        0
 16 17  2  0        0
 16 18  2  0        0
M  END
>  <CAS RN>
311455

>  <SMILES>
CCOP(=O)(OCC)Oc1ccc(cc1)N(=O)=O

>  <Measured or Estimated Log10(mmol/L)>
-6.160890094

$$$$

CDXL12

 12 12  0  0  0  0  0  0  0  0999 V2000
    0.7145   -0.4125    0.0000 C   0  0  0  0  0  0  0  2  0  0  0  0
    0.0000   -0.8250    0.0000 C   0  0  0  0  0  0  0  2  0  0  0  0
   -0.7145   -0.4125    0.0000 C   0  0  0  0  0  0  0  2  0  0  0  0
   -0.7145    0.4125    0.0000 C   0  0  0  0  0  0  0  2  0  0  0  0
    0.0000    0.8250    0.0000 C   0  0  0  0  0  0  0  2  0  0  0  0
    0.0000    1.6500    0.0000 Cl  0  0  0  0  0  0  0  2  0  0  0  0
    0.7145    0.4125    0.0000 C   0  0  0  0  0  0  0  2  0  0  0  0
    1.4289    0.8250    0.0000 Cl  0  0  0  0  0  0  0  2  0  0  0  0
   -1.4289    0.8250    0.0000 Cl  0  0  0  0  0  0  0  2  0  0  0  0
   -1.4289   -0.8250    0.0000 Cl  0  0  0  0  0  0  0  2  0  0  0  0
    0.0000   -1.6500    0.0000 Cl  0  0  0  0  0  0  0  2  0  0  0  0
    1.4289   -0.8250    0.0000 Cl  0  0  0  0  0  0  0  2  0  0  0  0
  1  2  1  0        0
  2  3  1  0        0
  3  4  1  0        0
  4  5  1  0        0
  5  6  1  0        0
  5  7  1  0        0
  1  7  1  0        0
  7  8  1  0        0
  4  9  1  0        0
  3 10  1  0        0
  2 11  1  0        0
  1 12  1  0        0
M  END
>  <CAS RN>
319846

>  <SMILES>
C1(C(C(C(C(Cl)C1Cl)Cl)Cl)Cl)Cl

>  <Measured or Estimated Log10(mmol/L)>
-1.534083523

$$$$

CDXL12

 12 12  0  0  0  0  0  0  0  0999 V2000
   -0.3572    0.4125    0.0000 C   0  0  0  0  0  0  0  2  0  0  0  0
   -1.0717    0.0000    0.0000 C   0  0  0  0  0  0  0  2  0  0  0  0
   -1.0717   -0.8250    0.0000 C   0  0  0  0  0  0  0  2  0  0  0  0
   -1.7862   -1.2375    0.0000 Cl  0  0  0  0  0  0  0  2  0  0  0  0
   -0.3572   -1.2375    0.0000 C   0  0  0  0  0  0  0  2  0  0  0  0
    0.3572   -0.8250    0.0000 C   0  0  0  0  0  0  0  2  0  0  0  0
    1.0717   -1.2375    0.0000 Cl  0  0  0  0  0  0  0  2  0  0  0  0
    0.3572    0.0000    0.0000 C   0  0  0  0  0  0  0  2  0  0  0  0
    1.0717    0.4125    0.0000 C   0  0  0  0  0  0  0  2  0  0  0  0
    1.7862    0.8250    0.0000 F   0  0  0  0  0  0  0  2  0  0  0  0
    1.0717    1.2375    0.0000 F   0  0  0  0  0  0  0  2  0  0  0  0
    1.7862    0.0000    0.0000 F   0  0  0  0  0  0  0  2  0  0  0  0
  1  2  4  0        0
  2  3  4  0        0
  3  4  1  0        0
  3  5  4  0        0
  5  6  4  0        0
  6  7  1  0        0
  6  8  4  0        0
  1  8  4  0        0
  8  9  1  0        0
  9 10  1  0        0
  9 11  1  0        0
  9 12  1  0        0
M  END
>  <CAS RN>
320605

>  <SMILES>
c1cc(Cl)cc(Cl)c1C(F)(F)F

>  <Measured or Estimated Log10(mmol/L)>
-2.256893506

$$$$

CDXL12

 14 14  0  0  0  0  0  0  0  0999 V2000
   -1.0717    0.8250    0.0000 O   0  0  0  0  0  0  0  2  0  0  0  0
   -1.0717    0.0000    0.0000 C   0  0  0  0  0  0  0  2  0  0  0  0
   -1.7862   -0.4125    0.0000 N   0  0  0  0  0  0  0  2  0  0  0  0
   -1.7862   -1.2375    0.0000 C   0  0  0  0  0  0  0  2  0  0  0  0
   -2.5006    0.0000    0.0000 C   0  0  0  0  0  0  0  2  0  0  0  0
   -0.3572   -0.4125    0.0000 N   0  0  0  0  0  0  0  2  0  0  0  0
    0.3572    0.0000    0.0000 C   0  0  0  0  0  0  0  2  0  0  0  0
    0.3572    0.8250    0.0000 C   0  0  0  0  0  0  0  2  0  0  0  0
    1.0717    1.2375    0.0000 C   0  0  0  0  0  0  0  2  0  0  0  0
    1.7862    0.8250    0.0000 C   0  0  0  0  0  0  0  2  0  0  0  0
    1.7862    0.0000    0.0000 C   0  0  0  0  0  0  0  2  0  0  0  0
    2.5006   -0.4125    0.0000 Cl  0  0  0  0  0  0  0  2  0  0  0  0
    1.0717   -0.4125    0.0000 C   0  0  0  0  0  0  0  2  0  0  0  0
    2.5006    1.2375    0.0000 Cl  0  0  0  0  0  0  0  2  0  0  0  0
  1  2  2  0        0
  2  3  1  0        0
  3  4  1  0        0
  3  5  1  0        0
  2  6  1  0        0
  6  7  1  0        0
  7  8  4  0        0
  8  9  4  0        0
  9 10  4  0        0
 10 11  4  0        0
 11 12  1  0        0
 11 13  4  0        0
  7 13  4  0        0
 10 14  1  0        0
M  END
>  <CAS RN>
330541

>  <SMILES>
O=C(N(C)C)Nc1ccc(c(Cl)c1)Cl

>  <Measured or Estimated Log10(mmol/L)>
-1.73036122

$$$$

CDXL12

 15 15  0  0  0  0  0  0  0  0999 V2000
   -0.7145    0.8250    0.0000 O   0  0  0  0  0  0  0  2  0  0  0  0
   -0.7145    0.0000    0.0000 C   0  0  0  0  0  0  0  2  0  0  0  0
   -1.4289   -0.4125    0.0000 N   0  0  0  0  0  0  0  2  0  0  0  0
   -2.1434    0.0000    0.0000 O   0  0  0  0  0  0  0  2  0  0  0  0
   -2.8579   -0.4125    0.0000 C   0  0  0  0  0  0  0  2  0  0  0  0
   -1.4289   -1.2375    0.0000 C   0  0  0  0  0  0  0  2  0  0  0  0
    0.0000   -0.4125    0.0000 N   0  0  0  0  0  0  0  2  0  0  0  0
    0.7145    0.0000    0.0000 C   0  0  0  0  0  0  0  2  0  0  0  0
    0.7145    0.8250    0.0000 C   0  0  0  0  0  0  0  2  0  0  0  0
    1.4289    1.2375    0.0000 C   0  0  0  0  0  0  0  2  0  0  0  0
    2.1434    0.8250    0.0000 C   0  0  0  0  0  0  0  2  0  0  0  0
    2.1434    0.0000    0.0000 C   0  0  0  0  0  0  0  2  0  0  0  0
    2.8579   -0.4125    0.0000 Cl  0  0  0  0  0  0  0  2  0  0  0  0
    1.4289   -0.4125    0.0000 C   0  0  0  0  0  0  0  2  0  0  0  0
    2.8579    1.2375    0.0000 Cl  0  0  0  0  0  0  0  2  0  0  0  0
  1  2  2  0        0
  2  3  1  0        0
  3  4  1  0        0
  4  5  1  0        0
  3  6  1  0        0
  2  7  1  0        0
  7  8  1  0        0
  8  9  4  0        0
  9 10  4  0        0
 10 11  4  0        0
 11 12  4  0        0
 12 13  1  0        0
 12 14  4  0        0
  8 14  4  0        0
 11 15  1  0        0
M  END
>  <CAS RN>
330552

>  <SMILES>
O=C(N(OC)C)Nc1ccc(c(Cl)c1)Cl

>  <Measured or Estimated Log10(mmol/L)>
-2.757879231

$$$$

CDXL12

  4  3  0  0  0  0  0  0  0  0999 V2000
   -0.3572   -0.2062    0.0000 C   0  0  0  0  0  0  0  2  0  0  0  0
   -1.0717    0.2062    0.0000 N   0  0  0  0  0  0  0  2  0  0  0  0
    0.3572    0.2062    0.0000 C   0  0  0  0  0  0  0  2  0  0  0  0
    1.0717   -0.2062    0.0000 N   0  0  0  0  0  0  0  2  0  0  0  0
  1  2  1  0        0
  1  3  1  0        0
  3  4  1  0        0
M  END
>  <CAS RN>
333186

>  <SMILES>
C(N)CN

>  <Measured or Estimated Log10(mmol/L)>
-1.163817046

$$$$

CDXL12

  4  3  0  0  0  0  0  0  0  0999 V2000
   -1.0717   -0.0000    0.0000 K   0  0  0  0  0  0  0  2  0  0  0  0
   -0.3572   -0.4125    0.0000 S   0  0  0  0  0  0  0  2  0  0  0  0
    0.3572    0.0000    0.0000 C   0  0  0  0  0  0  0  2  0  0  0  0
    1.0717    0.4125    0.0000 N   0  0  0  0  0  0  0  2  0  0  0  0
  1  2  1  0        0
  2  3  1  0        0
  3  4  3  0        0
M  END
>  <CAS RN>
333200

>  <SMILES>
[K]SC#N

>  <Measured or Estimated Log10(mmol/L)>
-0.880065402

$$$$

CDXL12

 19 19  0  0  0  0  0  0  0  0999 V2000
    0.0000   -0.8250    0.0000 O   0  0  0  0  0  0  0  2  0  0  0  0
    0.7145   -1.2375    0.0000 P   0  0  0  0  0  0  0  2  0  0  0  0
    1.4289   -0.8250    0.0000 O   0  0  0  0  0  0  0  2  0  0  0  0
    2.1434   -1.2375    0.0000 C   0  0  0  0  0  0  0  2  0  0  0  0
    2.8579   -0.8250    0.0000 C   0  0  0  0  0  0  0  2  0  0  0  0
    0.7145   -0.4125    0.0000 O   0  0  0  0  0  0  0  2  0  0  0  0
    0.0000    0.0000    0.0000 C   0  0  0  0  0  0  0  2  0  0  0  0
   -0.7145   -0.4125    0.0000 N   0  0  0  0  0  0  0  2  0  0  0  0
   -1.4289    0.0000    0.0000 C   0  0  0  0  0  0  0  2  0  0  0  0
   -1.4289    0.8250    0.0000 N   0  0  0  0  0  0  0  2  0  0  0  0
   -0.7145    1.2375    0.0000 C   0  0  0  0  0  0  0  2  0  0  0  0
   -0.7145    2.0625    0.0000 C   0  0  0  0  0  0  0  2  0  0  0  0
    0.0000    0.8250    0.0000 C   0  0  0  0  0  0  0  2  0  0  0  0
   -2.1434   -0.4125    0.0000 C   0  0  0  0  0  0  0  2  0  0  0  0
   -2.1434   -1.2375    0.0000 C   0  0  0  0  0  0  0  2  0  0  0  0
   -2.8579    0.0000    0.0000 C   0  0  0  0  0  0  0  2  0  0  0  0
    0.7145   -2.0625    0.0000 S   0  0  0  0  0  0  0  2  0  0  0  0
   -0.7145   -1.2375    0.0000 C   0  0  0  0  0  0  0  2  0  0  0  0
   -1.4289   -0.8250    0.0000 C   0  0  0  0  0  0  0  2  0  0  0  0
  1  2  1  0        0
  2  3  1  0        0
  3  4  1  0        0
  4  5  1  0        0
  2  6  1  0        0
  6  7  1  0        0
  7  8  4  0        0
  8  9  4  0        0
  9 10  4  0        0
 10 11  4  0        0
 11 12  1  0        0
 11 13  4  0        0
  7 13  4  0        0
  9 14  1  0        0
 14 15  1  0        0
 14 16  1  0        0
  2 17  2  0        0
  1 18  1  0        0
 18 19  1  0        0
M  END
>  <CAS RN>
333415

>  <SMILES>
O(P(OCC)(Oc1nc(nc(C)c1)C(C)C)=S)CC

>  <Measured or Estimated Log10(mmol/L)>
-5.483371879

$$$$

CDXL12

  9  9  0  0  0  0  0  0  0  0999 V2000
    0.7145    0.8250    0.0000 F   0  0  0  0  0  0  0  2  0  0  0  0
    0.0000    0.4125    0.0000 C   0  0  0  0  0  0  0  2  0  0  0  0
    0.0000   -0.4125    0.0000 C   0  0  0  0  0  0  0  2  0  0  0  0
   -0.7145   -0.8250    0.0000 C   0  0  0  0  0  0  0  2  0  0  0  0
   -1.4289   -0.4125    0.0000 C   0  0  0  0  0  0  0  2  0  0  0  0
   -1.4289    0.4125    0.0000 C   0  0  0  0  0  0  0  2  0  0  0  0
   -0.7145    0.8250    0.0000 C   0  0  0  0  0  0  0  2  0  0  0  0
    0.7145   -0.8250    0.0000 C   0  0  0  0  0  0  0  2  0  0  0  0
    1.4289   -0.4125    0.0000 Cl  0  0  0  0  0  0  0  2  0  0  0  0
  1  2  1  0        0
  2  3  4  0        0
  3  4  4  0        0
  4  5  4  0        0
  5  6  4  0        0
  6  7  4  0        0
  2  7  4  0        0
  3  8  1  0        0
  8  9  1  0        0
M  END
>  <CAS RN>
345357

>  <SMILES>
Fc1c(cccc1)CCl

>  <Measured or Estimated Log10(mmol/L)>
-2.478854956

$$$$

CDXL12

  8  8  0  0  0  0  0  0  0  0999 V2000
    1.0717    0.8250    0.0000 F   0  0  0  0  0  0  0  2  0  0  0  0
    0.3572    0.4125    0.0000 C   0  0  0  0  0  0  0  2  0  0  0  0
    0.3572   -0.4125    0.0000 C   0  0  0  0  0  0  0  2  0  0  0  0
   -0.3572   -0.8250    0.0000 C   0  0  0  0  0  0  0  2  0  0  0  0
   -1.0717   -0.4125    0.0000 C   0  0  0  0  0  0  0  2  0  0  0  0
   -1.0717    0.4125    0.0000 C   0  0  0  0  0  0  0  2  0  0  0  0
   -0.3572    0.8250    0.0000 C   0  0  0  0  0  0  0  2  0  0  0  0
    1.0717   -0.8250    0.0000 Cl  0  0  0  0  0  0  0  2  0  0  0  0
  1  2  1  0        0
  2  3  4  0        0
  3  4  4  0        0
  4  5  4  0        0
  5  6  4  0        0
  6  7  4  0        0
  2  7  4  0        0
  3  8  1  0        0
M  END
>  <CAS RN>
348516

>  <SMILES>
Fc1c(cccc1)Cl

>  <Measured or Estimated Log10(mmol/L)>
-1.757838689

$$$$

CDXL12

 11 11  0  0  0  0  0  0  0  0999 V2000
   -1.0717    0.4125    0.0000 N   0  0  0  0  0  0  0  2  0  0  0  0
   -1.0717    1.2375    0.0000 O   0  0  0  0  0  0  0  2  0  0  0  0
   -1.7862    0.0000    0.0000 O   0  0  0  0  0  0  0  2  0  0  0  0
   -0.3572    0.0000    0.0000 C   0  0  0  0  0  0  0  2  0  0  0  0
    0.3572    0.4125    0.0000 C   0  0  0  0  0  0  0  2  0  0  0  0
    1.0717    0.0000    0.0000 C   0  0  0  0  0  0  0  2  0  0  0  0
    1.7862    0.4125    0.0000 Cl  0  0  0  0  0  0  0  2  0  0  0  0
    1.0717   -0.8250    0.0000 C   0  0  0  0  0  0  0  2  0  0  0  0
    1.7862   -1.2375    0.0000 F   0  0  0  0  0  0  0  2  0  0  0  0
    0.3572   -1.2375    0.0000 C   0  0  0  0  0  0  0  2  0  0  0  0
   -0.3572   -0.8250    0.0000 C   0  0  0  0  0  0  0  2  0  0  0  0
  1  2  2  0        0
  1  3  2  0        0
  1  4  1  0        0
  4  5  4  0        0
  5  6  4  0        0
  6  7  1  0        0
  6  8  4  0        0
  8  9  1  0        0
  8 10  4  0        0
 10 11  4  0        0
  4 11  4  0        0
M  END
>  <CAS RN>
350301

>  <SMILES>
N(=O)(=O)c1cc(Cl)c(F)cc1

>  <Measured or Estimated Log10(mmol/L)>
-1.345758241

$$$$

CDXL12

  8  8  0  0  0  0  0  0  0  0999 V2000
    1.4289    0.8250    0.0000 F   0  0  0  0  0  0  0  2  0  0  0  0
    0.7145    0.4125    0.0000 C   0  0  0  0  0  0  0  2  0  0  0  0
    0.7145   -0.4125    0.0000 C   0  0  0  0  0  0  0  2  0  0  0  0
    0.0000   -0.8250    0.0000 C   0  0  0  0  0  0  0  2  0  0  0  0
   -0.7145   -0.4125    0.0000 C   0  0  0  0  0  0  0  2  0  0  0  0
   -0.7145    0.4125    0.0000 C   0  0  0  0  0  0  0  2  0  0  0  0
    0.0000    0.8250    0.0000 C   0  0  0  0  0  0  0  2  0  0  0  0
   -1.4289   -0.8250    0.0000 Cl  0  0  0  0  0  0  0  2  0  0  0  0
  1  2  1  0        0
  2  3  4  0        0
  3  4  4  0        0
  4  5  4  0        0
  5  6  4  0        0
  6  7  4  0        0
  2  7  4  0        0
  5  8  1  0        0
M  END
>  <CAS RN>
352330

>  <SMILES>
Fc1ccc(cc1)Cl

>  <Measured or Estimated Log10(mmol/L)>
-1.885324615

$$$$

CDXL12

  7  6  0  0  0  0  0  0  0  0999 V2000
   -1.0717   -0.2062    0.0000 F   0  0  0  0  0  0  0  2  0  0  0  0
   -0.3572    0.2062    0.0000 C   0  0  0  0  0  0  0  2  0  0  0  0
   -0.3572    1.0313    0.0000 F   0  0  0  0  0  0  0  2  0  0  0  0
    0.3572   -0.2062    0.0000 C   0  0  0  0  0  0  0  2  0  0  0  0
    1.0717    0.2062    0.0000 F   0  0  0  0  0  0  0  2  0  0  0  0
    0.3572   -1.0313    0.0000 F   0  0  0  0  0  0  0  2  0  0  0  0
    1.0717   -0.6188    0.0000 F   0  0  0  0  0  0  0  2  0  0  0  0
  1  2  1  0        0
  2  3  1  0        0
  2  4  1  0        0
  4  5  1  0        0
  4  6  1  0        0
  4  7  1  0        0
M  END
>  <CAS RN>
354336

>  <SMILES>
FC(F)C(F)(F)F

>  <Measured or Estimated Log10(mmol/L)>
0.911972471

$$$$

CDXL12

  9  9  0  0  0  0  0  0  0  0999 V2000
    1.4289    0.8250    0.0000 F   0  0  0  0  0  0  0  2  0  0  0  0
    0.7145    0.4125    0.0000 C   0  0  0  0  0  0  0  2  0  0  0  0
    0.7145   -0.4125    0.0000 C   0  0  0  0  0  0  0  2  0  0  0  0
    0.0000   -0.8250    0.0000 C   0  0  0  0  0  0  0  2  0  0  0  0
   -0.7145   -0.4125    0.0000 C   0  0  0  0  0  0  0  2  0  0  0  0
   -1.4289   -0.8250    0.0000 N   0  0  0  0  0  0  0  2  0  0  0  0
   -0.7145    0.4125    0.0000 C   0  0  0  0  0  0  0  2  0  0  0  0
    0.0000    0.8250    0.0000 C   0  0  0  0  0  0  0  2  0  0  0  0
    1.4289   -0.8250    0.0000 Cl  0  0  0  0  0  0  0  2  0  0  0  0
  1  2  1  0        0
  2  3  4  0        0
  3  4  4  0        0
  4  5  4  0        0
  5  6  1  0        0
  5  7  4  0        0
  7  8  4  0        0
  2  8  4  0        0
  3  9  1  0        0
M  END
>  <CAS RN>
367215

>  <SMILES>
Fc1c(cc(N)cc1)Cl

>  <Measured or Estimated Log10(mmol/L)>
-1.005838931

$$$$

CDXL12

  9  8  0  0  0  0  0  0  0  0999 V2000
   -2.1434   -0.6187    0.0000 C   0  0  0  0  0  0  0  2  0  0  0  0
   -1.4289   -0.2062    0.0000 C   0  0  0  0  0  0  0  2  0  0  0  0
   -1.4289    0.6187    0.0000 O   0  0  0  0  0  0  0  2  0  0  0  0
   -0.7145   -0.6187    0.0000 O   0  0  0  0  0  0  0  2  0  0  0  0
    0.0000   -0.2062    0.0000 Ni  0  0  0  0  0  0  0  2  0  0  0  0
    0.7145   -0.6187    0.0000 O   0  0  0  0  0  0  0  2  0  0  0  0
    1.4289   -0.2062    0.0000 C   0  0  0  0  0  0  0  2  0  0  0  0
    1.4289    0.6187    0.0000 O   0  0  0  0  0  0  0  2  0  0  0  0
    2.1434   -0.6187    0.0000 C   0  0  0  0  0  0  0  2  0  0  0  0
  1  2  1  0        0
  2  3  2  0        0
  2  4  1  0        0
  4  5  1  0        0
  5  6  1  0        0
  6  7  1  0        0
  7  8  2  0        0
  7  9  1  0        0
M  END
>  <CAS RN>
373024

>  <SMILES>
CC(=O)O[Ni]OC(=O)C

>  <Measured or Estimated Log10(mmol/L)>
-0.738471664

$$$$

CDXL12

 20 20  0  0  0  0  0  0  0  0999 V2000
   -2.5006   -1.0312    0.0000 C   0  0  0  0  0  0  0  2  0  0  0  0
   -1.7862   -0.6187    0.0000 C   0  0  0  0  0  0  0  2  0  0  0  0
   -1.0717   -1.0312    0.0000 O   0  0  0  0  0  0  0  2  0  0  0  0
   -0.3572   -0.6187    0.0000 P   0  0  0  0  0  0  0  2  0  0  0  0
   -0.3572    0.2063    0.0000 O   0  0  0  0  0  0  0  2  0  0  0  0
   -0.3572   -1.4437    0.0000 O   0  0  0  0  0  0  0  2  0  0  0  0
   -1.0717   -1.8562    0.0000 C   0  0  0  0  0  0  0  2  0  0  0  0
   -1.0717   -2.6812    0.0000 C   0  0  0  0  0  0  0  2  0  0  0  0
    0.3572   -1.0312    0.0000 O   0  0  0  0  0  0  0  2  0  0  0  0
    1.0717   -0.6187    0.0000 C   0  0  0  0  0  0  0  2  0  0  0  0
    1.7862   -1.0312    0.0000 C   0  0  0  0  0  0  0  2  0  0  0  0
    2.5006   -0.6187    0.0000 Cl  0  0  0  0  0  0  0  2  0  0  0  0
    1.0717    0.2063    0.0000 C   0  0  0  0  0  0  0  2  0  0  0  0
    0.3572    0.6188    0.0000 C   0  0  0  0  0  0  0  2  0  0  0  0
    0.3572    1.4438    0.0000 C   0  0  0  0  0  0  0  2  0  0  0  0
    1.0717    1.8562    0.0000 C   0  0  0  0  0  0  0  2  0  0  0  0
    1.0717    2.6812    0.0000 Cl  0  0  0  0  0  0  0  2  0  0  0  0
    1.7862    1.4437    0.0000 C   0  0  0  0  0  0  0  2  0  0  0  0
    1.7862    0.6188    0.0000 C   0  0  0  0  0  0  0  2  0  0  0  0
    2.5006    0.2063    0.0000 Cl  0  0  0  0  0  0  0  2  0  0  0  0
  1  2  1  0        0
  2  3  1  0        0
  3  4  1  0        0
  4  5  2  0        0
  4  6  1  0        0
  6  7  1  0        0
  7  8  1  0        0
  4  9  1  0        0
  9 10  1  0        0
 10 11  2  0        0
 11 12  1  0        0
 10 13  1  0        0
 13 14  4  0        0
 14 15  4  0        0
 15 16  4  0        0
 16 17  1  0        0
 16 18  4  0        0
 18 19  4  0        0
 13 19  4  0        0
 19 20  1  0        0
M  END
>  <CAS RN>
470906

>  <SMILES>
CCOP(=O)(OCC)OC(=CCl)c1ccc(Cl)cc1Cl

>  <Measured or Estimated Log10(mmol/L)>
-3.555787074

$$$$

CDXL12

  6  5  0  0  0  0  0  0  0  0999 V2000
    1.4289   -0.2062    0.0000 Na  0  0  0  0  0  0  0  2  0  0  0  0
    0.7145   -0.6188    0.0000 O   0  0  0  0  0  0  0  2  0  0  0  0
    0.0000   -0.2062    0.0000 C   0  0  0  0  0  0  0  2  0  0  0  0
    0.0000    0.6188    0.0000 O   0  0  0  0  0  0  0  2  0  0  0  0
   -0.7145   -0.6187    0.0000 O   0  0  0  0  0  0  0  2  0  0  0  0
   -1.4289   -0.2062    0.0000 Na  0  0  0  0  0  0  0  2  0  0  0  0
  1  2  1  0        0
  2  3  1  0        0
  3  4  2  0        0
  3  5  1  0        0
  5  6  1  0        0
M  END
>  <CAS RN>
497198

>  <SMILES>
[Na]OC(=O)O[Na]

>  <Measured or Estimated Log10(mmol/L)>
0.726791751

$$$$

CDXL12

 17 17  0  0  0  0  0  0  0  0999 V2000
    2.8579   -0.4125    0.0000 C   0  0  0  0  0  0  0  2  0  0  0  0
    2.1434   -0.8250    0.0000 O   0  0  0  0  0  0  0  2  0  0  0  0
    1.4289   -0.4125    0.0000 P   0  0  0  0  0  0  0  2  0  0  0  0
    1.4289    0.4125    0.0000 S   0  0  0  0  0  0  0  2  0  0  0  0
    1.4289   -1.2375    0.0000 O   0  0  0  0  0  0  0  2  0  0  0  0
    2.1434   -1.6500    0.0000 C   0  0  0  0  0  0  0  2  0  0  0  0
    0.7145   -0.8250    0.0000 O   0  0  0  0  0  0  0  2  0  0  0  0
    0.0000   -0.4125    0.0000 C   0  0  0  0  0  0  0  2  0  0  0  0
    0.0000    0.4125    0.0000 C   0  0  0  0  0  0  0  2  0  0  0  0
   -0.7145    0.8250    0.0000 C   0  0  0  0  0  0  0  2  0  0  0  0
   -1.4289    0.4125    0.0000 C   0  0  0  0  0  0  0  2  0  0  0  0
   -2.1434    0.8250    0.0000 N   0  0  0  0  0  0  0  2  0  0  0  0
   -2.1434    1.6500    0.0000 O   0  0  0  0  0  0  0  2  0  0  0  0
   -2.8579    0.4125    0.0000 O   0  0  0  0  0  0  0  2  0  0  0  0
   -1.4289   -0.4125    0.0000 C   0  0  0  0  0  0  0  2  0  0  0  0
   -2.1434   -0.8250    0.0000 Cl  0  0  0  0  0  0  0  2  0  0  0  0
   -0.7145   -0.8250    0.0000 C   0  0  0  0  0  0  0  2  0  0  0  0
  1  2  1  0        0
  2  3  1  0        0
  3  4  2  0        0
  3  5  1  0        0
  5  6  1  0        0
  3  7  1  0        0
  7  8  1  0        0
  8  9  4  0        0
  9 10  4  0        0
 10 11  4  0        0
 11 12  1  0        0
 12 13  2  0        0
 12 14  2  0        0
 11 15  4  0        0
 15 16  1  0        0
 15 17  4  0        0
  8 17  4  0        0
M  END
>  <CAS RN>
500287

>  <SMILES>
COP(=S)(OC)Oc1ccc(N(=O)=O)c(Cl)c1

>  <Measured or Estimated Log10(mmol/L)>
-1.177045074

$$$$

CDXL12

 11 11  0  0  0  0  0  0  0  0999 V2000
    2.1434   -0.8250    0.0000 C   0  0  0  0  0  0  0  2  0  0  0  0
    1.4289   -1.2375    0.0000 O   0  0  0  0  0  0  0  2  0  0  0  0
    0.7145   -0.8250    0.0000 C   0  0  0  0  0  0  0  2  0  0  0  0
    0.7145    0.0000    0.0000 C   0  0  0  0  0  0  0  2  0  0  0  0
    0.0000    0.4125    0.0000 C   0  0  0  0  0  0  0  2  0  0  0  0
    0.0000    1.2375    0.0000 O   0  0  0  0  0  0  0  2  0  0  0  0
   -0.7145   -0.0000    0.0000 C   0  0  0  0  0  0  0  2  0  0  0  0
   -0.7145   -0.8250    0.0000 C   0  0  0  0  0  0  0  2  0  0  0  0
   -1.4289   -1.2375    0.0000 O   0  0  0  0  0  0  0  2  0  0  0  0
   -2.1434   -0.8250    0.0000 C   0  0  0  0  0  0  0  2  0  0  0  0
    0.0000   -1.2375    0.0000 C   0  0  0  0  0  0  0  2  0  0  0  0
  1  2  1  0        0
  2  3  1  0        0
  3  4  4  0        0
  4  5  4  0        0
  5  6  1  0        0
  5  7  4  0        0
  7  8  4  0        0
  8  9  1  0        0
  9 10  1  0        0
  8 11  4  0        0
  3 11  4  0        0
M  END
>  <CAS RN>
500992

>  <SMILES>
COc1cc(O)cc(OC)c1

>  <Measured or Estimated Log10(mmol/L)>
-1.693123838

$$$$

CDXL12

  6  6  0  0  0  0  0  0  0  0999 V2000
    0.7145   -0.4125    0.0000 S   0  0  0  0  0  0  0  2  0  0  0  0
    0.0000   -0.8250    0.0000 C   0  0  0  0  0  0  0  2  0  0  0  0
   -0.7145   -0.4125    0.0000 C   0  0  0  0  0  0  0  2  0  0  0  0
   -0.7145    0.4125    0.0000 S   0  0  0  0  0  0  0  2  0  0  0  0
    0.0000    0.8250    0.0000 C   0  0  0  0  0  0  0  2  0  0  0  0
    0.7145    0.4125    0.0000 C   0  0  0  0  0  0  0  2  0  0  0  0
  1  2  1  0        0
  2  3  1  0        0
  3  4  1  0        0
  4  5  1  0        0
  5  6  1  0        0
  1  6  1  0        0
M  END
>  <CAS RN>
505293

>  <SMILES>
S1CCSCC1

>  <Measured or Estimated Log10(mmol/L)>
-1.0307801

$$$$

CDXL12

  3  2  0  0  0  0  0  0  0  0999 V2000
   -0.8250    0.0000    0.0000 N   0  0  0  0  0  0  0  2  0  0  0  0
    0.0000    0.0000    0.0000 C   0  0  0  0  0  0  0  2  0  0  0  0
    0.8250    0.0000    0.0000 Cl  0  0  0  0  0  0  0  2  0  0  0  0
  1  2  3  0        0
  2  3  1  0        0
M  END
>  <CAS RN>
506774

>  <SMILES>
N#CCl

>  <Measured or Estimated Log10(mmol/L)>
-3.11657242

$$$$

CDXL12

  5  4  0  0  0  0  0  0  0  0999 V2000
   -0.3572   -0.2062    0.0000 C   0  0  0  0  0  0  0  2  0  0  0  0
    0.3572   -0.6188    0.0000 C   0  0  0  0  0  0  0  2  0  0  0  0
    1.0717   -0.2062    0.0000 C   0  0  0  0  0  0  0  2  0  0  0  0
   -1.0717   -0.6187    0.0000 C   0  0  0  0  0  0  0  2  0  0  0  0
   -0.3572    0.6188    0.0000 I   0  0  0  0  0  0  0  2  0  0  0  0
  1  2  1  0        0
  2  3  1  0        0
  1  4  1  0        0
  1  5  1  0        0
M  END
>  <CAS RN>
513484

>  <SMILES>
C(CC)(C)I

>  <Measured or Estimated Log10(mmol/L)>
-1.23

$$$$

CDXL12

 26 28  0  0  0  0  0  0  0  0999 V2000
   -2.1434   -0.6188    0.0000 C   0  0  0  0  0  0  0  2  0  0  0  0
   -2.8579   -1.0313    0.0000 C   0  0  0  0  0  0  0  2  0  0  0  0
   -2.8579   -1.8563    0.0000 C   0  0  0  0  0  0  0  2  0  0  0  0
   -2.1434   -2.2687    0.0000 C   0  0  0  0  0  0  0  2  0  0  0  0
   -1.4289   -1.8563    0.0000 C   0  0  0  0  0  0  0  2  0  0  0  0
   -0.7145   -2.2687    0.0000 C   0  0  0  0  0  0  0  2  0  0  0  0
   -0.7145   -3.0938    0.0000 O   0  0  0  0  0  0  0  2  0  0  0  0
    0.0000   -1.8563    0.0000 O   0  0  0  0  0  0  0  2  0  0  0  0
    0.7145   -2.2687    0.0000 C   0  0  0  0  0  0  0  2  0  0  0  0
    1.4289   -1.8563    0.0000 C   0  0  0  0  0  0  0  2  0  0  0  0
    2.1434   -2.2687    0.0000 C   0  0  0  0  0  0  0  2  0  0  0  0
    2.8579   -1.8563    0.0000 C   0  0  0  0  0  0  0  2  0  0  0  0
    2.8579   -1.0313    0.0000 C   0  0  0  0  0  0  0  2  0  0  0  0
    2.1434   -0.6188    0.0000 C   0  0  0  0  0  0  0  2  0  0  0  0
    1.4289   -1.0313    0.0000 C   0  0  0  0  0  0  0  2  0  0  0  0
   -1.4289   -1.0313    0.0000 C   0  0  0  0  0  0  0  2  0  0  0  0
   -0.7145   -0.6188    0.0000 C   0  0  0  0  0  0  0  2  0  0  0  0
    0.0000   -1.0313    0.0000 O   0  0  0  0  0  0  0  2  0  0  0  0
   -0.7145    0.2062    0.0000 O   0  0  0  0  0  0  0  2  0  0  0  0
    0.0000    0.6188    0.0000 C   0  0  0  0  0  0  0  2  0  0  0  0
    0.0000    1.4438    0.0000 C   0  0  0  0  0  0  0  2  0  0  0  0
    0.7145    1.8563    0.0000 C   0  0  0  0  0  0  0  2  0  0  0  0
    0.7145    2.6812    0.0000 C   0  0  0  0  0  0  0  2  0  0  0  0
    0.0000    3.0938    0.0000 C   0  0  0  0  0  0  0  2  0  0  0  0
   -0.7145    2.6812    0.0000 C   0  0  0  0  0  0  0  2  0  0  0  0
   -0.7145    1.8563    0.0000 C   0  0  0  0  0  0  0  2  0  0  0  0
  1  2  4  0        0
  2  3  4  0        0
  3  4  4  0        0
  4  5  4  0        0
  5  6  1  0        0
  6  7  2  0        0
  6  8  1  0        0
  8  9  1  0        0
  9 10  1  0        0
 10 11  4  0        0
 11 12  4  0        0
 12 13  4  0        0
 13 14  4  0        0
 14 15  4  0        0
 10 15  4  0        0
  5 16  4  0        0
  1 16  4  0        0
 16 17  1  0        0
 17 18  2  0        0
 17 19  1  0        0
 19 20  1  0        0
 20 21  1  0        0
 21 22  4  0        0
 22 23  4  0        0
 23 24  4  0        0
 24 25  4  0        0
 25 26  4  0        0
 21 26  4  0        0
M  END
>  <CAS RN>
523319

>  <SMILES>
c1cccc(C(=O)OCc2ccccc2)c1C(=O)OCc1ccccc1

>  <Measured or Estimated Log10(mmol/L)>
-0.823551962

$$$$

CDXL12

 10 10  0  0  0  0  0  0  0  0999 V2000
    1.4289    0.4125    0.0000 O   0  0  0  0  0  0  0  2  0  0  0  0
    0.7145    0.0000    0.0000 C   0  0  0  0  0  0  0  2  0  0  0  0
    0.7145   -0.8250    0.0000 C   0  0  0  0  0  0  0  2  0  0  0  0
    0.0000   -1.2375    0.0000 C   0  0  0  0  0  0  0  2  0  0  0  0
   -0.7145   -0.8250    0.0000 C   0  0  0  0  0  0  0  2  0  0  0  0
   -0.7145    0.0000    0.0000 C   0  0  0  0  0  0  0  2  0  0  0  0
    0.0000    0.4125    0.0000 C   0  0  0  0  0  0  0  2  0  0  0  0
    0.0000    1.2375    0.0000 C   0  0  0  0  0  0  0  2  0  0  0  0
   -1.4289   -1.2375    0.0000 C   0  0  0  0  0  0  0  2  0  0  0  0
    1.4289   -1.2375    0.0000 C   0  0  0  0  0  0  0  2  0  0  0  0
  1  2  1  0        0
  2  3  4  0        0
  3  4  4  0        0
  4  5  4  0        0
  5  6  4  0        0
  6  7  4  0        0
  2  7  4  0        0
  7  8  1  0        0
  5  9  1  0        0
  3 10  1  0        0
M  END
>  <CAS RN>
527606

>  <SMILES>
Oc1c(cc(cc1C)C)C

>  <Measured or Estimated Log10(mmol/L)>
-0.68

$$$$

CDXL12

 12 12  0  0  0  0  0  0  0  0999 V2000
    0.7145   -1.6500    0.0000 O   0  0  0  0  0  0  0  2  0  0  0  0
    0.7145   -0.8250    0.0000 N   0  0  0  0  0  0  0  2  0  0  0  0
    1.4289   -0.4125    0.0000 O   0  0  0  0  0  0  0  2  0  0  0  0
    0.0000   -0.4125    0.0000 C   0  0  0  0  0  0  0  2  0  0  0  0
   -0.7145   -0.8250    0.0000 C   0  0  0  0  0  0  0  2  0  0  0  0
   -1.4289   -0.4125    0.0000 C   0  0  0  0  0  0  0  2  0  0  0  0
   -1.4289    0.4125    0.0000 C   0  0  0  0  0  0  0  2  0  0  0  0
   -0.7145    0.8250    0.0000 C   0  0  0  0  0  0  0  2  0  0  0  0
    0.0000    0.4125    0.0000 C   0  0  0  0  0  0  0  2  0  0  0  0
    0.7145    0.8250    0.0000 N   0  0  0  0  0  0  0  2  0  0  0  0
    0.7145    1.6500    0.0000 O   0  0  0  0  0  0  0  2  0  0  0  0
    1.4289    0.4125    0.0000 O   0  0  0  0  0  0  0  2  0  0  0  0
  1  2  2  0        0
  2  3  2  0        0
  2  4  1  0        0
  4  5  4  0        0
  5  6  4  0        0
  6  7  4  0        0
  7  8  4  0        0
  8  9  4  0        0
  4  9  4  0        0
  9 10  1  0        0
 10 11  2  0        0
 10 12  2  0        0
M  END
>  <CAS RN>
528290

>  <SMILES>
O=N(=O)c1ccccc1N(=O)=O

>  <Measured or Estimated Log10(mmol/L)>
-1.72

$$$$

CDXL12

 13 14  0  0  0  0  0  0  0  0999 V2000
   -2.1434    1.2375    0.0000 O   0  0  0  0  0  0  0  2  0  0  0  0
   -1.4289    0.8250    0.0000 C   0  0  0  0  0  0  0  2  0  0  0  0
   -0.7145    1.2375    0.0000 N   0  0  0  0  0  0  0  2  0  0  0  0
    0.0000    0.8250    0.0000 C   0  0  0  0  0  0  0  2  0  0  0  0
    0.7145    1.2375    0.0000 N   0  0  0  0  0  0  0  2  0  0  0  0
    1.4289    0.8250    0.0000 C   0  0  0  0  0  0  0  2  0  0  0  0
    1.4289    0.0000    0.0000 N   0  0  0  0  0  0  0  2  0  0  0  0
    0.7145   -0.4125    0.0000 C   0  0  0  0  0  0  0  2  0  0  0  0
    0.0000    0.0000    0.0000 C   0  0  0  0  0  0  0  2  0  0  0  0
   -0.7145   -0.4125    0.0000 N   0  0  0  0  0  0  0  2  0  0  0  0
   -1.4289    0.0000    0.0000 C   0  0  0  0  0  0  0  2  0  0  0  0
    0.7145   -1.2375    0.0000 O   0  0  0  0  0  0  0  2  0  0  0  0
    2.1434    1.2375    0.0000 N   0  0  0  0  0  0  0  2  0  0  0  0
  1  2  2  0        0
  2  3  1  0        0
  3  4  1  0        0
  4  5  1  0        0
  5  6  1  0        0
  6  7  2  0        0
  7  8  1  0        0
  8  9  1  0        0
  4  9  2  0        0
  9 10  1  0        0
 10 11  2  0        0
  2 11  1  0        0
  8 12  2  0        0
  6 13  1  0        0
M  END
>  <CAS RN>
529691

>  <SMILES>
O=C/1N\C=2\N/C(=N\C(/C2/N=C1)=O)/N

>  <Measured or Estimated Log10(mmol/L)>
-1.78

$$$$

CDXL12

 11 11  0  0  0  0  0  0  0  0999 V2000
   -2.1434   -0.8250    0.0000 C   0  0  0  0  0  0  0  2  0  0  0  0
   -2.1434    0.0000    0.0000 C   0  0  0  0  0  0  0  2  0  0  0  0
   -1.4289    0.4125    0.0000 C   0  0  0  0  0  0  0  2  0  0  0  0
   -0.7145   -0.0000    0.0000 C   0  0  0  0  0  0  0  2  0  0  0  0
   -0.7145   -0.8250    0.0000 C   0  0  0  0  0  0  0  2  0  0  0  0
   -1.4289   -1.2375    0.0000 C   0  0  0  0  0  0  0  2  0  0  0  0
    0.0000    0.4125    0.0000 C   0  0  0  0  0  0  0  2  0  0  0  0
    0.0000    1.2375    0.0000 O   0  0  0  0  0  0  0  2  0  0  0  0
    0.7145   -0.0000    0.0000 N   0  0  0  0  0  0  0  2  0  0  0  0
    1.4289    0.4125    0.0000 C   0  0  0  0  0  0  0  2  0  0  0  0
    2.1434    0.8250    0.0000 S   0  0  0  0  0  0  0  2  0  0  0  0
  1  2  4  0        0
  2  3  4  0        0
  3  4  4  0        0
  4  5  4  0        0
  5  6  4  0        0
  1  6  4  0        0
  4  7  1  0        0
  7  8  2  0        0
  7  9  1  0        0
  9 10  2  0        0
 10 11  2  0        0
M  END
>  <CAS RN>
532558

>  <SMILES>
c1ccc(cc1)C(=O)N=C=S

>  <Measured or Estimated Log10(mmol/L)>
-1.933961231

$$$$

CDXL12

  6  5  0  0  0  0  0  0  0  0999 V2000
    0.7145   -0.6188    0.0000 N   0  0  0  0  0  0  0  2  0  0  0  0
    0.0000   -0.2062    0.0000 C   0  0  0  0  0  0  0  2  0  0  0  0
    0.0000    0.6188    0.0000 S   0  0  0  0  0  0  0  2  0  0  0  0
   -0.7145   -0.6187    0.0000 N   0  0  0  0  0  0  0  2  0  0  0  0
   -1.4289   -0.2062    0.0000 C   0  0  0  0  0  0  0  2  0  0  0  0
    1.4289   -0.2062    0.0000 C   0  0  0  0  0  0  0  2  0  0  0  0
  1  2  1  0        0
  2  3  2  0        0
  2  4  1  0        0
  4  5  1  0        0
  1  6  1  0        0
M  END
>  <CAS RN>
534134

>  <SMILES>
N(C(=S)NC)C

>  <Measured or Estimated Log10(mmol/L)>
-0.800279565

$$$$

CDXL12

  6  6  0  0  0  0  0  0  0  0999 V2000
   -0.3923    0.6348    0.0000 C   0  0  0  0  0  0  0  2  0  0  0  0
    0.2751    0.1498    0.0000 C   0  0  0  0  0  0  0  2  0  0  0  0
    1.0597    0.4048    0.0000 C   0  0  0  0  0  0  0  2  0  0  0  0
    0.0202   -0.6348    0.0000 O   0  0  0  0  0  0  0  2  0  0  0  0
   -0.8048   -0.6348    0.0000 C   0  0  0  0  0  0  0  2  0  0  0  0
   -1.0597    0.1498    0.0000 C   0  0  0  0  0  0  0  2  0  0  0  0
  1  2  4  0        0
  2  3  1  0        0
  2  4  4  0        0
  4  5  4  0        0
  5  6  4  0        0
  1  6  4  0        0
M  END
>  <CAS RN>
534225

>  <SMILES>
c1c(C)occ1

>  <Measured or Estimated Log10(mmol/L)>
0.7827624

$$$$

CDXL12

 14 14  0  0  0  0  0  0  0  0999 V2000
   -1.4289    1.6500    0.0000 O   0  0  0  0  0  0  0  2  0  0  0  0
   -1.4289    0.8250    0.0000 N   0  0  0  0  0  0  0  2  0  0  0  0
   -2.1434    0.4125    0.0000 O   0  0  0  0  0  0  0  2  0  0  0  0
   -0.7145    0.4125    0.0000 C   0  0  0  0  0  0  0  2  0  0  0  0
    0.0000    0.8250    0.0000 C   0  0  0  0  0  0  0  2  0  0  0  0
    0.7145    0.4125    0.0000 C   0  0  0  0  0  0  0  2  0  0  0  0
    1.4289    0.8250    0.0000 N   0  0  0  0  0  0  0  2  0  0  0  0
    1.4289    1.6500    0.0000 O   0  0  0  0  0  0  0  2  0  0  0  0
    2.1434    0.4125    0.0000 O   0  0  0  0  0  0  0  2  0  0  0  0
    0.7145   -0.4125    0.0000 C   0  0  0  0  0  0  0  2  0  0  0  0
    1.4289   -0.8250    0.0000 O   0  0  0  0  0  0  0  2  0  0  0  0
    0.0000   -0.8250    0.0000 C   0  0  0  0  0  0  0  2  0  0  0  0
    0.0000   -1.6500    0.0000 C   0  0  0  0  0  0  0  2  0  0  0  0
   -0.7145   -0.4125    0.0000 C   0  0  0  0  0  0  0  2  0  0  0  0
  1  2  2  0        0
  2  3  2  0        0
  2  4  1  0        0
  4  5  4  0        0
  5  6  4  0        0
  6  7  1  0        0
  7  8  2  0        0
  7  9  2  0        0
  6 10  4  0        0
 10 11  1  0        0
 10 12  4  0        0
 12 13  1  0        0
 12 14  4  0        0
  4 14  4  0        0
M  END
>  <CAS RN>
534521

>  <SMILES>
O=N(=O)c1cc(N(=O)=O)c(O)c(C)c1

>  <Measured or Estimated Log10(mmol/L)>
-1.805597313

$$$$

CDXL12

 10 10  0  0  0  0  0  0  0  0999 V2000
    1.0717    1.2375    0.0000 O   0  0  0  0  0  0  0  2  0  0  0  0
    1.0717    0.4125    0.0000 C   0  0  0  0  0  0  0  2  0  0  0  0
    1.7862   -0.0000    0.0000 O   0  0  0  0  0  0  0  2  0  0  0  0
    0.3572   -0.0000    0.0000 C   0  0  0  0  0  0  0  2  0  0  0  0
    0.3572   -0.8250    0.0000 C   0  0  0  0  0  0  0  2  0  0  0  0
   -0.3572   -1.2375    0.0000 C   0  0  0  0  0  0  0  2  0  0  0  0
   -1.0717   -0.8250    0.0000 C   0  0  0  0  0  0  0  2  0  0  0  0
   -1.0717    0.0000    0.0000 C   0  0  0  0  0  0  0  2  0  0  0  0
   -1.7862    0.4125    0.0000 Cl  0  0  0  0  0  0  0  2  0  0  0  0
   -0.3572    0.4125    0.0000 C   0  0  0  0  0  0  0  2  0  0  0  0
  1  2  2  0        0
  2  3  1  0        0
  2  4  1  0        0
  4  5  4  0        0
  5  6  4  0        0
  6  7  4  0        0
  7  8  4  0        0
  8  9  1  0        0
  8 10  4  0        0
  4 10  4  0        0
M  END
>  <CAS RN>
535808

>  <SMILES>
O=C(O)c1cccc(Cl)c1

>  <Measured or Estimated Log10(mmol/L)>
-0.407277102

$$$$

CDXL12

  9  9  0  0  0  0  0  0  0  0999 V2000
   -1.7862   -0.8250    0.0000 N   0  0  0  0  0  0  0  2  0  0  0  0
   -1.0717   -0.4125    0.0000 C   0  0  0  0  0  0  0  2  0  0  0  0
   -0.3572   -0.8250    0.0000 C   0  0  0  0  0  0  0  2  0  0  0  0
    0.3572   -0.4125    0.0000 C   0  0  0  0  0  0  0  2  0  0  0  0
    1.0717   -0.8250    0.0000 O   0  0  0  0  0  0  0  2  0  0  0  0
    1.7862   -0.4125    0.0000 C   0  0  0  0  0  0  0  2  0  0  0  0
    0.3572    0.4125    0.0000 C   0  0  0  0  0  0  0  2  0  0  0  0
   -0.3572    0.8250    0.0000 C   0  0  0  0  0  0  0  2  0  0  0  0
   -1.0717    0.4125    0.0000 C   0  0  0  0  0  0  0  2  0  0  0  0
  1  2  1  0        0
  2  3  4  0        0
  3  4  4  0        0
  4  5  1  0        0
  5  6  1  0        0
  4  7  4  0        0
  7  8  4  0        0
  8  9  4  0        0
  2  9  4  0        0
M  END
>  <CAS RN>
536903

>  <SMILES>
Nc1cc(OC)ccc1

>  <Measured or Estimated Log10(mmol/L)>
-2.643294017

$$$$

CDXL12

  4  3  0  0  0  0  0  0  0  0999 V2000
   -1.0717    0.2062    0.0000 Cl  0  0  0  0  0  0  0  2  0  0  0  0
   -0.3572   -0.2062    0.0000 C   0  0  0  0  0  0  0  2  0  0  0  0
    0.3572    0.2062    0.0000 C   0  0  0  0  0  0  0  2  0  0  0  0
    1.0717   -0.2062    0.0000 C   0  0  0  0  0  0  0  2  0  0  0  0
  1  2  1  0        0
  2  3  1  0        0
  3  4  1  0        0
M  END
>  <CAS RN>
540545

>  <SMILES>
ClCCC

>  <Measured or Estimated Log10(mmol/L)>
-0.3157262

$$$$

CDXL12

  8  7  0  0  0  0  0  0  0  0999 V2000
   -0.7145    0.6188    0.0000 O   0  0  0  0  0  0  0  2  0  0  0  0
   -0.7145   -0.2062    0.0000 C   0  0  0  0  0  0  0  2  0  0  0  0
    0.0000   -0.6188    0.0000 O   0  0  0  0  0  0  0  2  0  0  0  0
    0.7145   -0.2062    0.0000 C   0  0  0  0  0  0  0  2  0  0  0  0
    1.4289   -0.6188    0.0000 C   0  0  0  0  0  0  0  2  0  0  0  0
    1.4289    0.2062    0.0000 C   0  0  0  0  0  0  0  2  0  0  0  0
    0.7145    0.6188    0.0000 C   0  0  0  0  0  0  0  2  0  0  0  0
   -1.4289   -0.6188    0.0000 C   0  0  0  0  0  0  0  2  0  0  0  0
  1  2  2  0        0
  2  3  1  0        0
  3  4  1  0        0
  4  5  1  0        0
  4  6  1  0        0
  4  7  1  0        0
  2  8  1  0        0
M  END
>  <CAS RN>
540885

>  <SMILES>
O=C(OC(C)(C)C)C

>  <Measured or Estimated Log10(mmol/L)>
1.3734591

$$$$

CDXL12

  6  5  0  0  0  0  0  0  0  0999 V2000
    0.7145   -0.2062    0.0000 C   0  0  0  0  0  0  0  2  0  0  0  0
    0.0000   -0.6187    0.0000 C   0  0  0  0  0  0  0  2  0  0  0  0
   -0.7145   -0.2062    0.0000 C   0  0  0  0  0  0  0  2  0  0  0  0
   -1.4289   -0.6187    0.0000 I   0  0  0  0  0  0  0  2  0  0  0  0
    0.7145    0.6187    0.0000 C   0  0  0  0  0  0  0  2  0  0  0  0
    1.4289   -0.6187    0.0000 C   0  0  0  0  0  0  0  2  0  0  0  0
  1  2  1  0        0
  2  3  1  0        0
  3  4  1  0        0
  1  5  1  0        0
  1  6  1  0        0
M  END
>  <CAS RN>
541286

>  <SMILES>
C(CCI)(C)C

>  <Measured or Estimated Log10(mmol/L)>
-1.87

$$$$

CDXL12

  8  8  0  0  0  0  0  0  0  0999 V2000
    0.7145    0.4125    0.0000 C   0  0  0  0  0  0  0  2  0  0  0  0
    0.7145   -0.4125    0.0000 C   0  0  0  0  0  0  0  2  0  0  0  0
    0.0000   -0.8250    0.0000 C   0  0  0  0  0  0  0  2  0  0  0  0
   -0.7145   -0.4125    0.0000 C   0  0  0  0  0  0  0  2  0  0  0  0
   -0.7145    0.4125    0.0000 C   0  0  0  0  0  0  0  2  0  0  0  0
   -1.4289    0.8250    0.0000 Cl  0  0  0  0  0  0  0  2  0  0  0  0
    0.0000    0.8250    0.0000 C   0  0  0  0  0  0  0  2  0  0  0  0
    1.4289    0.8250    0.0000 Cl  0  0  0  0  0  0  0  2  0  0  0  0
  1  2  4  0        0
  2  3  4  0        0
  3  4  4  0        0
  4  5  4  0        0
  5  6  1  0        0
  5  7  4  0        0
  1  7  4  0        0
  1  8  1  0        0
M  END
>  <CAS RN>
541731

>  <SMILES>
c1(cccc(Cl)c1)Cl

>  <Measured or Estimated Log10(mmol/L)>
-1.298097432

$$$$

CDXL12

  7  7  0  0  0  0  0  0  0  0999 V2000
    0.3572    0.4125    0.0000 C   0  0  0  0  0  0  0  2  0  0  0  0
    0.3572   -0.4125    0.0000 C   0  0  0  0  0  0  0  2  0  0  0  0
   -0.3572   -0.8250    0.0000 C   0  0  0  0  0  0  0  2  0  0  0  0
   -1.0717   -0.4125    0.0000 C   0  0  0  0  0  0  0  2  0  0  0  0
   -1.0717    0.4125    0.0000 C   0  0  0  0  0  0  0  2  0  0  0  0
   -0.3572    0.8250    0.0000 C   0  0  0  0  0  0  0  2  0  0  0  0
    1.0717    0.8250    0.0000 Cl  0  0  0  0  0  0  0  2  0  0  0  0
  1  2  1  0        0
  2  3  1  0        0
  3  4  1  0        0
  4  5  1  0        0
  5  6  1  0        0
  1  6  1  0        0
  1  7  1  0        0
M  END
>  <CAS RN>
542187

>  <SMILES>
C1(CCCCC1)Cl

>  <Measured or Estimated Log10(mmol/L)>
-1.47

$$$$

CDXL12

  5  4  0  0  0  0  0  0  0  0999 V2000
    0.0000   -0.2062    0.0000 C   0  0  0  0  0  0  0  2  0  0  0  0
   -0.7145    0.2062    0.0000 C   0  0  0  0  0  0  0  2  0  0  0  0
   -1.4289   -0.2062    0.0000 Cl  0  0  0  0  0  0  0  2  0  0  0  0
    0.7145    0.2062    0.0000 C   0  0  0  0  0  0  0  2  0  0  0  0
    1.4289   -0.2062    0.0000 Cl  0  0  0  0  0  0  0  2  0  0  0  0
  1  2  2  0        0
  2  3  1  0        0
  1  4  1  0        0
  4  5  1  0        0
M  END
>  <CAS RN>
542756

>  <SMILES>
C(=CCl)CCl

>  <Measured or Estimated Log10(mmol/L)>
-1.25281781

$$$$

CDXL12

  5  4  0  0  0  0  0  0  0  0999 V2000
   -1.4289   -0.4125    0.0000 C   0  0  0  0  0  0  0  2  0  0  0  0
   -0.7145   -0.0000    0.0000 C   0  0  0  0  0  0  0  2  0  0  0  0
    0.0000   -0.4125    0.0000 N   0  0  0  0  0  0  0  2  0  0  0  0
    0.7145    0.0000    0.0000 C   0  0  0  0  0  0  0  2  0  0  0  0
    1.4289    0.4125    0.0000 S   0  0  0  0  0  0  0  2  0  0  0  0
  1  2  1  0        0
  2  3  1  0        0
  3  4  2  0        0
  4  5  2  0        0
M  END
>  <CAS RN>
542858

>  <SMILES>
CCN=C=S

>  <Measured or Estimated Log10(mmol/L)>
-2.306769035

$$$$

CDXL12

 17 16  0  0  0  0  0  0  0  0999 V2000
   -5.0013    0.2062    0.0000 C   0  0  0  0  0  0  0  2  0  0  0  0
   -4.2868   -0.2062    0.0000 C   0  0  0  0  0  0  0  2  0  0  0  0
   -3.5724    0.2062    0.0000 C   0  0  0  0  0  0  0  2  0  0  0  0
   -2.8579   -0.2062    0.0000 C   0  0  0  0  0  0  0  2  0  0  0  0
   -2.1434    0.2062    0.0000 C   0  0  0  0  0  0  0  2  0  0  0  0
   -1.4289   -0.2062    0.0000 C   0  0  0  0  0  0  0  2  0  0  0  0
   -0.7145    0.2062    0.0000 C   0  0  0  0  0  0  0  2  0  0  0  0
   -0.0000   -0.2062    0.0000 C   0  0  0  0  0  0  0  2  0  0  0  0
    0.7145    0.2062    0.0000 C   0  0  0  0  0  0  0  2  0  0  0  0
    1.4289   -0.2062    0.0000 C   0  0  0  0  0  0  0  2  0  0  0  0
    2.1434    0.2062    0.0000 C   0  0  0  0  0  0  0  2  0  0  0  0
    2.8579   -0.2062    0.0000 C   0  0  0  0  0  0  0  2  0  0  0  0
    3.5724    0.2062    0.0000 C   0  0  0  0  0  0  0  2  0  0  0  0
    4.2868   -0.2062    0.0000 C   0  0  0  0  0  0  0  2  0  0  0  0
    5.0013    0.2062    0.0000 C   0  0  0  0  0  0  0  2  0  0  0  0
    5.7158   -0.2062    0.0000 C   0  0  0  0  0  0  0  2  0  0  0  0
   -5.7158   -0.2062    0.0000 I   0  0  0  0  0  0  0  2  0  0  0  0
  1  2  1  0        0
  2  3  1  0        0
  3  4  1  0        0
  4  5  1  0        0
  5  6  1  0        0
  6  7  1  0        0
  7  8  1  0        0
  8  9  1  0        0
  9 10  1  0        0
 10 11  1  0        0
 11 12  1  0        0
 12 13  1  0        0
 13 14  1  0        0
 14 15  1  0        0
 15 16  1  0        0
  1 17  1  0        0
M  END
>  <CAS RN>
544774

>  <SMILES>
C(CCCCCCCCCCCCCCC)I

>  <Measured or Estimated Log10(mmol/L)>
-3.15

$$$$

CDXL12

  7  6  0  0  0  0  0  0  0  0999 V2000
    0.0000    1.0312    0.0000 O   0  0  0  0  0  0  0  2  0  0  0  0
    0.0000    0.2062    0.0000 C   0  0  0  0  0  0  0  2  0  0  0  0
    0.7145   -0.2063    0.0000 O   0  0  0  0  0  0  0  2  0  0  0  0
    1.4289    0.2062    0.0000 C   0  0  0  0  0  0  0  2  0  0  0  0
   -0.7145   -0.2063    0.0000 C   0  0  0  0  0  0  0  2  0  0  0  0
   -0.7145   -1.0312    0.0000 O   0  0  0  0  0  0  0  2  0  0  0  0
   -1.4289    0.2062    0.0000 C   0  0  0  0  0  0  0  2  0  0  0  0
  1  2  2  0        0
  2  3  1  0        0
  3  4  1  0        0
  2  5  1  0        0
  5  6  1  0        0
  5  7  1  0        0
M  END
>  <CAS RN>
547648

>  <SMILES>
O=C(OC)C(O)C

>  <Measured or Estimated Log10(mmol/L)>
0.866189855

$$$$

CDXL12

  9  9  0  0  0  0  0  0  0  0999 V2000
    1.4289    0.8250    0.0000 N   0  0  0  0  0  0  0  2  0  0  0  0
    0.7145    0.4125    0.0000 C   0  0  0  0  0  0  0  2  0  0  0  0
    0.7145   -0.4125    0.0000 C   0  0  0  0  0  0  0  2  0  0  0  0
    0.0000   -0.8250    0.0000 C   0  0  0  0  0  0  0  2  0  0  0  0
   -0.7145   -0.4125    0.0000 C   0  0  0  0  0  0  0  2  0  0  0  0
   -0.7145    0.4125    0.0000 C   0  0  0  0  0  0  0  2  0  0  0  0
    0.0000    0.8250    0.0000 C   0  0  0  0  0  0  0  2  0  0  0  0
   -1.4289   -0.8250    0.0000 Cl  0  0  0  0  0  0  0  2  0  0  0  0
    1.4289   -0.8250    0.0000 Cl  0  0  0  0  0  0  0  2  0  0  0  0
  1  2  1  0        0
  2  3  4  0        0
  3  4  4  0        0
  4  5  4  0        0
  5  6  4  0        0
  6  7  4  0        0
  2  7  4  0        0
  5  8  1  0        0
  3  9  1  0        0
M  END
>  <CAS RN>
554007

>  <SMILES>
Nc1c(cc(cc1)Cl)Cl

>  <Measured or Estimated Log10(mmol/L)>
-1.928325581

$$$$

CDXL12

  6  5  0  0  0  0  0  0  0  0999 V2000
    0.0000    0.6188    0.0000 O   0  0  0  0  0  0  0  2  0  0  0  0
    0.0000   -0.2062    0.0000 C   0  0  0  0  0  0  0  2  0  0  0  0
    0.7145   -0.6188    0.0000 O   0  0  0  0  0  0  0  2  0  0  0  0
    1.4289   -0.2062    0.0000 C   0  0  0  0  0  0  0  2  0  0  0  0
   -0.7145   -0.6187    0.0000 C   0  0  0  0  0  0  0  2  0  0  0  0
   -1.4289   -0.2062    0.0000 C   0  0  0  0  0  0  0  2  0  0  0  0
  1  2  2  0        0
  2  3  1  0        0
  3  4  1  0        0
  2  5  1  0        0
  5  6  1  0        0
M  END
>  <CAS RN>
554121

>  <SMILES>
O=C(OC)CC

>  <Measured or Estimated Log10(mmol/L)>
0.4822325

$$$$

CDXL12

 10 10  0  0  0  0  0  0  0  0999 V2000
   -1.0717    1.2375    0.0000 O   0  0  0  0  0  0  0  2  0  0  0  0
   -1.0717    0.4125    0.0000 N   0  0  0  0  0  0  0  2  0  0  0  0
   -1.7862   -0.0000    0.0000 O   0  0  0  0  0  0  0  2  0  0  0  0
   -0.3572   -0.0000    0.0000 C   0  0  0  0  0  0  0  2  0  0  0  0
   -0.3572   -0.8250    0.0000 C   0  0  0  0  0  0  0  2  0  0  0  0
    0.3572   -1.2375    0.0000 C   0  0  0  0  0  0  0  2  0  0  0  0
    1.0717   -0.8250    0.0000 C   0  0  0  0  0  0  0  2  0  0  0  0
    1.0717    0.0000    0.0000 C   0  0  0  0  0  0  0  2  0  0  0  0
    1.7862    0.4125    0.0000 O   0  0  0  0  0  0  0  2  0  0  0  0
    0.3572    0.4125    0.0000 C   0  0  0  0  0  0  0  2  0  0  0  0
  1  2  2  0        0
  2  3  2  0        0
  2  4  1  0        0
  4  5  4  0        0
  5  6  4  0        0
  6  7  4  0        0
  7  8  4  0        0
  8  9  1  0        0
  8 10  4  0        0
  4 10  4  0        0
M  END
>  <CAS RN>
554847

>  <SMILES>
O=N(=O)c1cccc(O)c1

>  <Measured or Estimated Log10(mmol/L)>
-0.8649705

$$$$

CDXL12

  4  3  0  0  0  0  0  0  0  0999 V2000
   -0.3572   -0.4125    0.0000 N   0  0  0  0  0  0  0  2  0  0  0  0
    0.3572    0.0000    0.0000 C   0  0  0  0  0  0  0  2  0  0  0  0
    1.0717    0.4125    0.0000 S   0  0  0  0  0  0  0  2  0  0  0  0
   -1.0717   -0.0000    0.0000 C   0  0  0  0  0  0  0  2  0  0  0  0
  1  2  2  0        0
  2  3  2  0        0
  1  4  1  0        0
M  END
>  <CAS RN>
556616

>  <SMILES>
N(=C=S)C

>  <Measured or Estimated Log10(mmol/L)>
-2.416860333

$$$$

CDXL12

  5  4  0  0  0  0  0  0  0  0999 V2000
    0.0000   -0.0000    0.0000 C   0  0  0  0  0  0  0  2  0  0  0  0
    0.8250   -0.0000    0.0000 C   0  0  0  0  0  0  0  2  0  0  0  0
    0.0000   -0.8250    0.0000 C   0  0  0  0  0  0  0  2  0  0  0  0
   -0.8250   -0.0000    0.0000 C   0  0  0  0  0  0  0  2  0  0  0  0
    0.0000    0.8250    0.0000 I   0  0  0  0  0  0  0  2  0  0  0  0
  1  2  1  0        0
  1  3  1  0        0
  1  4  1  0        0
  1  5  1  0        0
M  END
>  <CAS RN>
558178

>  <SMILES>
C(C)(C)(C)I

>  <Measured or Estimated Log10(mmol/L)>
-2.65

$$$$

CDXL12

 19 18  0  0  0  0  0  0  0  0999 V2000
   -3.5724    0.2062    0.0000 C   0  0  0  0  0  0  0  2  0  0  0  0
   -2.8579    0.6187    0.0000 C   0  0  0  0  0  0  0  2  0  0  0  0
   -2.1434    0.2062    0.0000 O   0  0  0  0  0  0  0  2  0  0  0  0
   -1.4289    0.6187    0.0000 P   0  0  0  0  0  0  0  2  0  0  0  0
   -1.4289    1.4437    0.0000 S   0  0  0  0  0  0  0  2  0  0  0  0
   -1.4289   -0.2062    0.0000 O   0  0  0  0  0  0  0  2  0  0  0  0
   -2.1434   -0.6188    0.0000 C   0  0  0  0  0  0  0  2  0  0  0  0
   -2.1434   -1.4438    0.0000 C   0  0  0  0  0  0  0  2  0  0  0  0
   -0.7145    0.2062    0.0000 S   0  0  0  0  0  0  0  2  0  0  0  0
    0.0000    0.6187    0.0000 C   0  0  0  0  0  0  0  2  0  0  0  0
    0.7145    0.2062    0.0000 S   0  0  0  0  0  0  0  2  0  0  0  0
    1.4289    0.6188    0.0000 P   0  0  0  0  0  0  0  2  0  0  0  0
    1.4289    1.4438    0.0000 S   0  0  0  0  0  0  0  2  0  0  0  0
    2.1434    0.2062    0.0000 O   0  0  0  0  0  0  0  2  0  0  0  0
    2.8579    0.6187    0.0000 C   0  0  0  0  0  0  0  2  0  0  0  0
    3.5724    0.2062    0.0000 C   0  0  0  0  0  0  0  2  0  0  0  0
    1.4289   -0.2062    0.0000 O   0  0  0  0  0  0  0  2  0  0  0  0
    2.1434   -0.6188    0.0000 C   0  0  0  0  0  0  0  2  0  0  0  0
    2.1434   -1.4438    0.0000 C   0  0  0  0  0  0  0  2  0  0  0  0
  1  2  1  0        0
  2  3  1  0        0
  3  4  1  0        0
  4  5  2  0        0
  4  6  1  0        0
  6  7  1  0        0
  7  8  1  0        0
  4  9  1  0        0
  9 10  1  0        0
 10 11  1  0        0
 11 12  1  0        0
 12 13  2  0        0
 12 14  1  0        0
 14 15  1  0        0
 15 16  1  0        0
 12 17  1  0        0
 17 18  1  0        0
 18 19  1  0        0
M  END
>  <CAS RN>
563122

>  <SMILES>
CCOP(=S)(OCC)SCSP(=S)(OCC)OCC

>  <Measured or Estimated Log10(mmol/L)>
-7.266812427

$$$$

CDXL12

 12 13  0  0  0  0  0  0  0  0999 V2000
    1.7862   -1.2375    0.0000 C   0  0  0  0  0  0  0  2  0  0  0  0
    1.0717   -0.8250    0.0000 C   0  0  0  0  0  0  0  2  0  0  0  0
    1.0717    0.0000    0.0000 C   0  0  0  0  0  0  0  2  0  0  0  0
    0.3572    0.4125    0.0000 C   0  0  0  0  0  0  0  2  0  0  0  0
    0.3572    1.2375    0.0000 C   0  0  0  0  0  0  0  2  0  0  0  0
   -0.3572    0.0000    0.0000 C   0  0  0  0  0  0  0  2  0  0  0  0
   -1.0717    0.4125    0.0000 C   0  0  0  0  0  0  0  2  0  0  0  0
   -1.7862   -0.0000    0.0000 C   0  0  0  0  0  0  0  2  0  0  0  0
   -1.7862   -0.8250    0.0000 C   0  0  0  0  0  0  0  2  0  0  0  0
   -1.0717   -1.2375    0.0000 C   0  0  0  0  0  0  0  2  0  0  0  0
   -0.3572   -0.8250    0.0000 C   0  0  0  0  0  0  0  2  0  0  0  0
    0.3572   -1.2375    0.0000 C   0  0  0  0  0  0  0  2  0  0  0  0
  1  2  1  0        0
  2  3  4  0        0
  3  4  4  0        0
  4  5  1  0        0
  4  6  4  0        0
  6  7  4  0        0
  7  8  4  0        0
  8  9  4  0        0
  9 10  4  0        0
 10 11  4  0        0
  6 11  4  0        0
 11 12  4  0        0
  2 12  4  0        0
M  END
>  <CAS RN>
575417

>  <SMILES>
Cc1cc(C)c2ccccc2c1

>  <Measured or Estimated Log10(mmol/L)>
-2.31

$$$$

CDXL12

  9  9  0  0  0  0  0  0  0  0999 V2000
   -0.3572    1.2375    0.0000 O   0  0  0  0  0  0  0  2  0  0  0  0
   -0.3572    0.4125    0.0000 C   0  0  0  0  0  0  0  2  0  0  0  0
    0.3572    0.0000    0.0000 C   0  0  0  0  0  0  0  2  0  0  0  0
    0.3572   -0.8250    0.0000 C   0  0  0  0  0  0  0  2  0  0  0  0
   -0.3572   -1.2375    0.0000 C   0  0  0  0  0  0  0  2  0  0  0  0
   -1.0717   -0.8250    0.0000 C   0  0  0  0  0  0  0  2  0  0  0  0
   -1.0717    0.0000    0.0000 C   0  0  0  0  0  0  0  2  0  0  0  0
    1.0717   -1.2375    0.0000 Cl  0  0  0  0  0  0  0  2  0  0  0  0
    1.0717    0.4125    0.0000 Cl  0  0  0  0  0  0  0  2  0  0  0  0
  1  2  1  0        0
  2  3  4  0        0
  3  4  4  0        0
  4  5  4  0        0
  5  6  4  0        0
  6  7  4  0        0
  2  7  4  0        0
  4  8  1  0        0
  3  9  1  0        0
M  END
>  <CAS RN>
576249

>  <SMILES>
Oc1c(c(ccc1)Cl)Cl

>  <Measured or Estimated Log10(mmol/L)>
-1.5

$$$$

CDXL12

  9  9  0  0  0  0  0  0  0  0999 V2000
    1.0717    0.4125    0.0000 O   0  0  0  0  0  0  0  2  0  0  0  0
    0.3572    0.0000    0.0000 C   0  0  0  0  0  0  0  2  0  0  0  0
    0.3572   -0.8250    0.0000 C   0  0  0  0  0  0  0  2  0  0  0  0
   -0.3572   -1.2375    0.0000 C   0  0  0  0  0  0  0  2  0  0  0  0
   -1.0717   -0.8250    0.0000 C   0  0  0  0  0  0  0  2  0  0  0  0
   -1.0717    0.0000    0.0000 C   0  0  0  0  0  0  0  2  0  0  0  0
   -0.3572    0.4125    0.0000 C   0  0  0  0  0  0  0  2  0  0  0  0
   -0.3572    1.2375    0.0000 C   0  0  0  0  0  0  0  2  0  0  0  0
    1.0717   -1.2375    0.0000 C   0  0  0  0  0  0  0  2  0  0  0  0
  1  2  1  0        0
  2  3  4  0        0
  3  4  4  0        0
  4  5  4  0        0
  5  6  4  0        0
  6  7  4  0        0
  2  7  4  0        0
  7  8  1  0        0
  3  9  1  0        0
M  END
>  <CAS RN>
576261

>  <SMILES>
Oc1c(cccc1C)C

>  <Measured or Estimated Log10(mmol/L)>
-1.037735887

$$$$

CDXL12

  9  9  0  0  0  0  0  0  0  0999 V2000
    0.7145   -0.8250    0.0000 C   0  0  0  0  0  0  0  2  0  0  0  0
    1.4289   -0.4125    0.0000 C   0  0  0  0  0  0  0  2  0  0  0  0
    0.0000   -0.4125    0.0000 C   0  0  0  0  0  0  0  2  0  0  0  0
   -0.7145   -0.8250    0.0000 C   0  0  0  0  0  0  0  2  0  0  0  0
   -1.4289   -0.4125    0.0000 C   0  0  0  0  0  0  0  2  0  0  0  0
   -1.4289    0.4125    0.0000 C   0  0  0  0  0  0  0  2  0  0  0  0
   -0.7145    0.8250    0.0000 C   0  0  0  0  0  0  0  2  0  0  0  0
    0.0000    0.4125    0.0000 C   0  0  0  0  0  0  0  2  0  0  0  0
    0.7145    0.8250    0.0000 N   0  0  0  0  0  0  0  2  0  0  0  0
  1  2  1  0        0
  1  3  1  0        0
  3  4  4  0        0
  4  5  4  0        0
  5  6  4  0        0
  6  7  4  0        0
  7  8  4  0        0
  3  8  4  0        0
  8  9  1  0        0
M  END
>  <CAS RN>
578541

>  <SMILES>
C(C)c1ccccc1N

>  <Measured or Estimated Log10(mmol/L)>
-1.177645819

$$$$

CDXL12

 12 13  0  0  0  0  0  0  0  0999 V2000
   -2.1434   -0.8250    0.0000 C   0  0  0  0  0  0  0  2  0  0  0  0
   -1.4289   -0.4125    0.0000 C   0  0  0  0  0  0  0  2  0  0  0  0
   -1.4289    0.4125    0.0000 C   0  0  0  0  0  0  0  2  0  0  0  0
   -0.7145    0.8250    0.0000 C   0  0  0  0  0  0  0  2  0  0  0  0
    0.0000    0.4125    0.0000 C   0  0  0  0  0  0  0  2  0  0  0  0
    0.7145    0.8250    0.0000 C   0  0  0  0  0  0  0  2  0  0  0  0
    1.4289    0.4125    0.0000 C   0  0  0  0  0  0  0  2  0  0  0  0
    2.1434    0.8250    0.0000 C   0  0  0  0  0  0  0  2  0  0  0  0
    1.4289   -0.4125    0.0000 C   0  0  0  0  0  0  0  2  0  0  0  0
    0.7145   -0.8250    0.0000 C   0  0  0  0  0  0  0  2  0  0  0  0
    0.0000   -0.4125    0.0000 C   0  0  0  0  0  0  0  2  0  0  0  0
   -0.7145   -0.8250    0.0000 C   0  0  0  0  0  0  0  2  0  0  0  0
  1  2  1  0        0
  2  3  4  0        0
  3  4  4  0        0
  4  5  4  0        0
  5  6  4  0        0
  6  7  4  0        0
  7  8  1  0        0
  7  9  4  0        0
  9 10  4  0        0
 10 11  4  0        0
  5 11  4  0        0
 11 12  4  0        0
  2 12  4  0        0
M  END
>  <CAS RN>
581420

>  <SMILES>
Cc1ccc2cc(C)ccc2c1

>  <Measured or Estimated Log10(mmol/L)>
-2.91

$$$$

CDXL12

  8  8  0  0  0  0  0  0  0  0999 V2000
    1.0717    0.8250    0.0000 O   0  0  0  0  0  0  0  2  0  0  0  0
    0.3572    0.4125    0.0000 C   0  0  0  0  0  0  0  2  0  0  0  0
    0.3572   -0.4125    0.0000 C   0  0  0  0  0  0  0  2  0  0  0  0
   -0.3572   -0.8250    0.0000 C   0  0  0  0  0  0  0  2  0  0  0  0
   -1.0717   -0.4125    0.0000 C   0  0  0  0  0  0  0  2  0  0  0  0
   -1.0717    0.4125    0.0000 C   0  0  0  0  0  0  0  2  0  0  0  0
   -0.3572    0.8250    0.0000 C   0  0  0  0  0  0  0  2  0  0  0  0
    1.0717   -0.8250    0.0000 C   0  0  0  0  0  0  0  2  0  0  0  0
  1  2  2  0        0
  2  3  1  0        0
  3  4  1  0        0
  4  5  1  0        0
  5  6  1  0        0
  6  7  1  0        0
  2  7  1  0        0
  3  8  1  0        0
M  END
>  <CAS RN>
583608

>  <SMILES>
O=C1C(CCCC1)C

>  <Measured or Estimated Log10(mmol/L)>
0.3164229

$$$$

CDXL12

  9  9  0  0  0  0  0  0  0  0999 V2000
    1.4289   -0.8250    0.0000 O   0  0  0  0  0  0  0  2  0  0  0  0
    0.7145   -0.4125    0.0000 C   0  0  0  0  0  0  0  2  0  0  0  0
    0.7145    0.4125    0.0000 C   0  0  0  0  0  0  0  2  0  0  0  0
    0.0000    0.8250    0.0000 C   0  0  0  0  0  0  0  2  0  0  0  0
   -0.7145    0.4125    0.0000 C   0  0  0  0  0  0  0  2  0  0  0  0
   -0.7145   -0.4125    0.0000 C   0  0  0  0  0  0  0  2  0  0  0  0
   -1.4289   -0.8250    0.0000 Cl  0  0  0  0  0  0  0  2  0  0  0  0
    0.0000   -0.8250    0.0000 C   0  0  0  0  0  0  0  2  0  0  0  0
    1.4289    0.8250    0.0000 Cl  0  0  0  0  0  0  0  2  0  0  0  0
  1  2  1  0        0
  2  3  4  0        0
  3  4  4  0        0
  4  5  4  0        0
  5  6  4  0        0
  6  7  1  0        0
  6  8  4  0        0
  2  8  4  0        0
  3  9  1  0        0
M  END
>  <CAS RN>
583788

>  <SMILES>
Oc1c(ccc(Cl)c1)Cl

>  <Measured or Estimated Log10(mmol/L)>
-1.52

$$$$

CDXL12

  6  5  0  0  0  0  0  0  0  0999 V2000
    1.4289   -0.2062    0.0000 K   0  0  0  0  0  0  0  2  0  0  0  0
    0.7145   -0.6188    0.0000 O   0  0  0  0  0  0  0  2  0  0  0  0
    0.0000   -0.2062    0.0000 C   0  0  0  0  0  0  0  2  0  0  0  0
    0.0000    0.6188    0.0000 O   0  0  0  0  0  0  0  2  0  0  0  0
   -0.7145   -0.6187    0.0000 O   0  0  0  0  0  0  0  2  0  0  0  0
   -1.4289   -0.2062    0.0000 K   0  0  0  0  0  0  0  2  0  0  0  0
  1  2  1  0        0
  2  3  1  0        0
  3  4  2  0        0
  3  5  1  0        0
  5  6  1  0        0
M  END
>  <CAS RN>
584087

>  <SMILES>
[K]OC(=O)O[K]

>  <Measured or Estimated Log10(mmol/L)>
0.672392744

$$$$

CDXL12

 13 13  0  0  0  0  0  0  0  0999 V2000
   -1.4289    1.2375    0.0000 O   0  0  0  0  0  0  0  2  0  0  0  0
   -1.4289    0.4125    0.0000 N   0  0  0  0  0  0  0  2  0  0  0  0
   -2.1434   -0.0000    0.0000 O   0  0  0  0  0  0  0  2  0  0  0  0
   -0.7145   -0.0000    0.0000 C   0  0  0  0  0  0  0  2  0  0  0  0
   -0.7145   -0.8250    0.0000 C   0  0  0  0  0  0  0  2  0  0  0  0
    0.0000   -1.2375    0.0000 C   0  0  0  0  0  0  0  2  0  0  0  0
    0.7145   -0.8250    0.0000 C   0  0  0  0  0  0  0  2  0  0  0  0
    0.7145   -0.0000    0.0000 C   0  0  0  0  0  0  0  2  0  0  0  0
    1.4289    0.4125    0.0000 N   0  0  0  0  0  0  0  2  0  0  0  0
    1.4289    1.2375    0.0000 O   0  0  0  0  0  0  0  2  0  0  0  0
    2.1434   -0.0000    0.0000 O   0  0  0  0  0  0  0  2  0  0  0  0
    0.0000    0.4125    0.0000 C   0  0  0  0  0  0  0  2  0  0  0  0
    1.4289   -1.2375    0.0000 Br  0  0  0  0  0  0  0  2  0  0  0  0
  1  2  2  0        0
  2  3  2  0        0
  2  4  1  0        0
  4  5  4  0        0
  5  6  4  0        0
  6  7  4  0        0
  7  8  4  0        0
  8  9  1  0        0
  9 10  2  0        0
  9 11  2  0        0
  8 12  4  0        0
  4 12  4  0        0
  7 13  1  0        0
M  END
>  <CAS RN>
584485

>  <SMILES>
O=N(=O)c1ccc(c(N(=O)=O)c1)Br

>  <Measured or Estimated Log10(mmol/L)>
-2.832125328

$$$$

CDXL12

 10 10  0  0  0  0  0  0  0  0999 V2000
    1.0717    1.2375    0.0000 O   0  0  0  0  0  0  0  2  0  0  0  0
    1.0717    0.4125    0.0000 C   0  0  0  0  0  0  0  2  0  0  0  0
    1.7862   -0.0000    0.0000 O   0  0  0  0  0  0  0  2  0  0  0  0
    0.3572   -0.0000    0.0000 C   0  0  0  0  0  0  0  2  0  0  0  0
    0.3572   -0.8250    0.0000 C   0  0  0  0  0  0  0  2  0  0  0  0
   -0.3572   -1.2375    0.0000 C   0  0  0  0  0  0  0  2  0  0  0  0
   -1.0717   -0.8250    0.0000 C   0  0  0  0  0  0  0  2  0  0  0  0
   -1.0717    0.0000    0.0000 C   0  0  0  0  0  0  0  2  0  0  0  0
   -1.7862    0.4125    0.0000 Br  0  0  0  0  0  0  0  2  0  0  0  0
   -0.3572    0.4125    0.0000 C   0  0  0  0  0  0  0  2  0  0  0  0
  1  2  2  0        0
  2  3  1  0        0
  2  4  1  0        0
  4  5  4  0        0
  5  6  4  0        0
  6  7  4  0        0
  7  8  4  0        0
  8  9  1  0        0
  8 10  4  0        0
  4 10  4  0        0
M  END
>  <CAS RN>
585762

>  <SMILES>
O=C(O)c1cccc(Br)c1

>  <Measured or Estimated Log10(mmol/L)>
-0.595955484

$$$$

CDXL12

 10 10  0  0  0  0  0  0  0  0999 V2000
    1.0717    1.2375    0.0000 O   0  0  0  0  0  0  0  2  0  0  0  0
    1.0717    0.4125    0.0000 C   0  0  0  0  0  0  0  2  0  0  0  0
    1.7862   -0.0000    0.0000 O   0  0  0  0  0  0  0  2  0  0  0  0
    0.3572   -0.0000    0.0000 C   0  0  0  0  0  0  0  2  0  0  0  0
   -0.3572    0.4125    0.0000 C   0  0  0  0  0  0  0  2  0  0  0  0
   -1.0717   -0.0000    0.0000 C   0  0  0  0  0  0  0  2  0  0  0  0
   -1.0717   -0.8250    0.0000 C   0  0  0  0  0  0  0  2  0  0  0  0
   -0.3572   -1.2375    0.0000 C   0  0  0  0  0  0  0  2  0  0  0  0
    0.3572   -0.8250    0.0000 C   0  0  0  0  0  0  0  2  0  0  0  0
   -1.7862   -1.2375    0.0000 Br  0  0  0  0  0  0  0  2  0  0  0  0
  1  2  2  0        0
  2  3  1  0        0
  2  4  1  0        0
  4  5  4  0        0
  5  6  4  0        0
  6  7  4  0        0
  7  8  4  0        0
  8  9  4  0        0
  4  9  4  0        0
  7 10  1  0        0
M  END
>  <CAS RN>
586765

>  <SMILES>
O=C(O)c1ccc(cc1)Br

>  <Measured or Estimated Log10(mmol/L)>
-0.719929738

$$$$

CDXL12

 10 10  0  0  0  0  0  0  0  0999 V2000
   -1.0717    1.2375    0.0000 O   0  0  0  0  0  0  0  2  0  0  0  0
   -1.0717    0.4125    0.0000 N   0  0  0  0  0  0  0  2  0  0  0  0
   -1.7862    0.0000    0.0000 O   0  0  0  0  0  0  0  2  0  0  0  0
   -0.3572    0.0000    0.0000 C   0  0  0  0  0  0  0  2  0  0  0  0
    0.3572    0.4125    0.0000 C   0  0  0  0  0  0  0  2  0  0  0  0
    1.0717    0.0000    0.0000 C   0  0  0  0  0  0  0  2  0  0  0  0
    1.0717   -0.8250    0.0000 C   0  0  0  0  0  0  0  2  0  0  0  0
    0.3572   -1.2375    0.0000 C   0  0  0  0  0  0  0  2  0  0  0  0
   -0.3572   -0.8250    0.0000 C   0  0  0  0  0  0  0  2  0  0  0  0
    1.7862   -1.2375    0.0000 Br  0  0  0  0  0  0  0  2  0  0  0  0
  1  2  2  0        0
  2  3  2  0        0
  2  4  1  0        0
  4  5  4  0        0
  5  6  4  0        0
  6  7  4  0        0
  7  8  4  0        0
  8  9  4  0        0
  4  9  4  0        0
  7 10  1  0        0
M  END
>  <CAS RN>
586787

>  <SMILES>
O=N(=O)c1ccc(cc1)Br

>  <Measured or Estimated Log10(mmol/L)>
-2.083249861

$$$$

CDXL12

  9  9  0  0  0  0  0  0  0  0999 V2000
   -1.7862    0.8250    0.0000 N   0  0  0  0  0  0  0  2  0  0  0  0
   -1.0717    0.4125    0.0000 C   0  0  0  0  0  0  0  2  0  0  0  0
   -0.3572    0.8250    0.0000 C   0  0  0  0  0  0  0  2  0  0  0  0
    0.3572    0.4125    0.0000 C   0  0  0  0  0  0  0  2  0  0  0  0
    0.3572   -0.4125    0.0000 C   0  0  0  0  0  0  0  2  0  0  0  0
   -0.3572   -0.8250    0.0000 C   0  0  0  0  0  0  0  2  0  0  0  0
   -1.0717   -0.4125    0.0000 C   0  0  0  0  0  0  0  2  0  0  0  0
    1.0717   -0.8250    0.0000 C   0  0  0  0  0  0  0  2  0  0  0  0
    1.7862   -0.4125    0.0000 C   0  0  0  0  0  0  0  2  0  0  0  0
  1  2  1  0        0
  2  3  4  0        0
  3  4  4  0        0
  4  5  4  0        0
  5  6  4  0        0
  6  7  4  0        0
  2  7  4  0        0
  5  8  1  0        0
  8  9  1  0        0
M  END
>  <CAS RN>
589162

>  <SMILES>
Nc1ccc(cc1)CC

>  <Measured or Estimated Log10(mmol/L)>
-1.128906316

$$$$

CDXL12

  9  9  0  0  0  0  0  0  0  0999 V2000
    1.4289    1.2375    0.0000 O   0  0  0  0  0  0  0  2  0  0  0  0
    0.7145    0.8250    0.0000 C   0  0  0  0  0  0  0  2  0  0  0  0
    0.7145   -0.0000    0.0000 C   0  0  0  0  0  0  0  2  0  0  0  0
    0.0000   -0.4125    0.0000 C   0  0  0  0  0  0  0  2  0  0  0  0
    0.0000   -1.2375    0.0000 Cl  0  0  0  0  0  0  0  2  0  0  0  0
   -0.7145   -0.0000    0.0000 C   0  0  0  0  0  0  0  2  0  0  0  0
   -0.7145    0.8250    0.0000 C   0  0  0  0  0  0  0  2  0  0  0  0
   -1.4289    1.2375    0.0000 Cl  0  0  0  0  0  0  0  2  0  0  0  0
    0.0000    1.2375    0.0000 C   0  0  0  0  0  0  0  2  0  0  0  0
  1  2  1  0        0
  2  3  4  0        0
  3  4  4  0        0
  4  5  1  0        0
  4  6  4  0        0
  6  7  4  0        0
  7  8  1  0        0
  7  9  4  0        0
  2  9  4  0        0
M  END
>  <CAS RN>
591355

>  <SMILES>
Oc1cc(Cl)cc(Cl)c1

>  <Measured or Estimated Log10(mmol/L)>
-2.2536259

$$$$

CDXL12

  7  6  0  0  0  0  0  0  0  0999 V2000
   -2.1434   -0.4125    0.0000 C   0  0  0  0  0  0  0  2  0  0  0  0
   -1.4289    0.0000    0.0000 C   0  0  0  0  0  0  0  2  0  0  0  0
   -0.7145   -0.4125    0.0000 C   0  0  0  0  0  0  0  2  0  0  0  0
    0.0000    0.0000    0.0000 C   0  0  0  0  0  0  0  2  0  0  0  0
    0.7145   -0.4125    0.0000 N   0  0  0  0  0  0  0  2  0  0  0  0
    1.4289    0.0000    0.0000 C   0  0  0  0  0  0  0  2  0  0  0  0
    2.1434    0.4125    0.0000 S   0  0  0  0  0  0  0  2  0  0  0  0
  1  2  1  0        0
  2  3  1  0        0
  3  4  1  0        0
  4  5  1  0        0
  5  6  2  0        0
  6  7  2  0        0
M  END
>  <CAS RN>
592825

>  <SMILES>
CCCCN=C=S

>  <Measured or Estimated Log10(mmol/L)>
-2.427976484

$$$$

CDXL12

  5  4  0  0  0  0  0  0  0  0999 V2000
   -0.8250   -0.0000    0.0000 C   0  0  0  0  0  0  0  2  0  0  0  0
    0.0000   -0.0000    0.0000 Sn  0  0  0  0  0  0  0  2  0  0  0  0
    0.0000   -0.8250    0.0000 C   0  0  0  0  0  0  0  2  0  0  0  0
    0.8250   -0.0000    0.0000 C   0  0  0  0  0  0  0  2  0  0  0  0
    0.0000    0.8250    0.0000 C   0  0  0  0  0  0  0  2  0  0  0  0
  1  2  1  0        0
  2  3  1  0        0
  2  4  1  0        0
  2  5  1  0        0
M  END
>  <CAS RN>
594274

>  <SMILES>
C[Sn](C)(C)C

>  <Measured or Estimated Log10(mmol/L)>
-0.9686015

$$$$

CDXL12

  9  8  0  0  0  0  0  0  0  0999 V2000
    0.0000    0.8250    0.0000 O   0  0  0  0  0  0  0  2  0  0  0  0
    0.0000    0.0000    0.0000 P   0  0  0  0  0  0  0  2  0  0  0  0
   -0.7145   -0.4125    0.0000 O   0  0  0  0  0  0  0  2  0  0  0  0
   -1.4289   -0.0000    0.0000 C   0  0  0  0  0  0  0  2  0  0  0  0
   -2.1434   -0.4125    0.0000 C   0  0  0  0  0  0  0  2  0  0  0  0
    0.7145   -0.4125    0.0000 O   0  0  0  0  0  0  0  2  0  0  0  0
    1.4289   -0.0000    0.0000 C   0  0  0  0  0  0  0  2  0  0  0  0
    2.1434   -0.4125    0.0000 C   0  0  0  0  0  0  0  2  0  0  0  0
    0.0000   -0.8250    0.0000 O   0  0  0  0  0  0  0  2  0  0  0  0
  1  2  2  0        0
  2  3  1  0        0
  3  4  1  0        0
  4  5  1  0        0
  2  6  1  0        0
  6  7  1  0        0
  7  8  1  0        0
  2  9  1  0        0
M  END
>  <CAS RN>
598027

>  <SMILES>
O=P(OCC)(OCC)O

>  <Measured or Estimated Log10(mmol/L)>
-1.60979777

$$$$

CDXL12

  5  4  0  0  0  0  0  0  0  0999 V2000
   -0.3572   -0.2062    0.0000 C   0  0  0  0  0  0  0  2  0  0  0  0
   -1.0717   -0.6187    0.0000 Br  0  0  0  0  0  0  0  2  0  0  0  0
   -0.3572    0.6188    0.0000 Br  0  0  0  0  0  0  0  2  0  0  0  0
    0.3572   -0.6188    0.0000 C   0  0  0  0  0  0  0  2  0  0  0  0
    1.0717   -0.2062    0.0000 Br  0  0  0  0  0  0  0  2  0  0  0  0
  1  2  1  0        0
  1  3  1  0        0
  1  4  2  0        0
  4  5  1  0        0
M  END
>  <CAS RN>
598163

>  <SMILES>
C(Br)(Br)=CBr

>  <Measured or Estimated Log10(mmol/L)>
-1.329425766

$$$$

CDXL12

 13 13  0  0  0  0  0  0  0  0999 V2000
   -0.7145    1.6500    0.0000 O   0  0  0  0  0  0  0  2  0  0  0  0
   -0.7145    0.8250    0.0000 N   0  0  0  0  0  0  0  2  0  0  0  0
   -1.4289    0.4125    0.0000 O   0  0  0  0  0  0  0  2  0  0  0  0
    0.0000    0.4125    0.0000 C   0  0  0  0  0  0  0  2  0  0  0  0
    0.0000   -0.4125    0.0000 C   0  0  0  0  0  0  0  2  0  0  0  0
   -0.7145   -0.8250    0.0000 N   0  0  0  0  0  0  0  2  0  0  0  0
   -0.7145   -1.6500    0.0000 O   0  0  0  0  0  0  0  2  0  0  0  0
   -1.4289   -0.4125    0.0000 O   0  0  0  0  0  0  0  2  0  0  0  0
    0.7145   -0.8250    0.0000 C   0  0  0  0  0  0  0  2  0  0  0  0
    1.4289   -0.4125    0.0000 C   0  0  0  0  0  0  0  2  0  0  0  0
    1.4289    0.4125    0.0000 C   0  0  0  0  0  0  0  2  0  0  0  0
    0.7145    0.8250    0.0000 C   0  0  0  0  0  0  0  2  0  0  0  0
    0.7145   -1.6500    0.0000 C   0  0  0  0  0  0  0  2  0  0  0  0
  1  2  2  0        0
  2  3  2  0        0
  2  4  1  0        0
  4  5  4  0        0
  5  6  1  0        0
  6  7  2  0        0
  6  8  2  0        0
  5  9  4  0        0
  9 10  4  0        0
 10 11  4  0        0
 11 12  4  0        0
  4 12  4  0        0
  9 13  1  0        0
M  END
>  <CAS RN>
602017

>  <SMILES>
O=N(=O)c1c(N(=O)=O)c(ccc1)C

>  <Measured or Estimated Log10(mmol/L)>
-2.440849475

$$$$

CDXL12

  9  9  0  0  0  0  0  0  0  0999 V2000
   -0.3572    1.2375    0.0000 N   0  0  0  0  0  0  0  2  0  0  0  0
   -0.3572    0.4125    0.0000 C   0  0  0  0  0  0  0  2  0  0  0  0
    0.3572    0.0000    0.0000 C   0  0  0  0  0  0  0  2  0  0  0  0
    0.3572   -0.8250    0.0000 C   0  0  0  0  0  0  0  2  0  0  0  0
   -0.3572   -1.2375    0.0000 C   0  0  0  0  0  0  0  2  0  0  0  0
   -1.0717   -0.8250    0.0000 C   0  0  0  0  0  0  0  2  0  0  0  0
   -1.0717    0.0000    0.0000 C   0  0  0  0  0  0  0  2  0  0  0  0
    1.0717   -1.2375    0.0000 Cl  0  0  0  0  0  0  0  2  0  0  0  0
    1.0717    0.4125    0.0000 Cl  0  0  0  0  0  0  0  2  0  0  0  0
  1  2  1  0        0
  2  3  4  0        0
  3  4  4  0        0
  4  5  4  0        0
  5  6  4  0        0
  6  7  4  0        0
  2  7  4  0        0
  4  8  1  0        0
  3  9  1  0        0
M  END
>  <CAS RN>
608275

>  <SMILES>
Nc1c(c(ccc1)Cl)Cl

>  <Measured or Estimated Log10(mmol/L)>
-2.159977481

$$$$

CDXL12

 11 11  0  0  0  0  0  0  0  0999 V2000
   -0.7145   -0.8250    0.0000 C   0  0  0  0  0  0  0  2  0  0  0  0
   -0.7145    0.0000    0.0000 C   0  0  0  0  0  0  0  2  0  0  0  0
    0.0000    0.4125    0.0000 C   0  0  0  0  0  0  0  2  0  0  0  0
    0.7145   -0.0000    0.0000 C   0  0  0  0  0  0  0  2  0  0  0  0
    0.7145   -0.8250    0.0000 C   0  0  0  0  0  0  0  2  0  0  0  0
    1.4289   -1.2375    0.0000 Cl  0  0  0  0  0  0  0  2  0  0  0  0
    0.0000   -1.2375    0.0000 C   0  0  0  0  0  0  0  2  0  0  0  0
    1.4289    0.4125    0.0000 Cl  0  0  0  0  0  0  0  2  0  0  0  0
    0.0000    1.2375    0.0000 Cl  0  0  0  0  0  0  0  2  0  0  0  0
   -1.4289    0.4125    0.0000 Cl  0  0  0  0  0  0  0  2  0  0  0  0
   -1.4289   -1.2375    0.0000 Cl  0  0  0  0  0  0  0  2  0  0  0  0
  1  2  4  0        0
  2  3  4  0        0
  3  4  4  0        0
  4  5  4  0        0
  5  6  1  0        0
  5  7  4  0        0
  1  7  4  0        0
  4  8  1  0        0
  3  9  1  0        0
  2 10  1  0        0
  1 11  1  0        0
M  END
>  <CAS RN>
608935

>  <SMILES>
c1(c(c(c(c(Cl)c1)Cl)Cl)Cl)Cl

>  <Measured or Estimated Log10(mmol/L)>
-1.674252643

$$$$

CDXL12

 10 10  0  0  0  0  0  0  0  0999 V2000
    1.4289    0.4125    0.0000 Cl  0  0  0  0  0  0  0  2  0  0  0  0
    0.7145    0.0000    0.0000 C   0  0  0  0  0  0  0  2  0  0  0  0
    0.7145   -0.8250    0.0000 C   0  0  0  0  0  0  0  2  0  0  0  0
    1.4289   -1.2375    0.0000 Cl  0  0  0  0  0  0  0  2  0  0  0  0
    0.0000   -1.2375    0.0000 C   0  0  0  0  0  0  0  2  0  0  0  0
   -0.7145   -0.8250    0.0000 C   0  0  0  0  0  0  0  2  0  0  0  0
   -1.4289   -1.2375    0.0000 O   0  0  0  0  0  0  0  2  0  0  0  0
   -0.7145    0.0000    0.0000 C   0  0  0  0  0  0  0  2  0  0  0  0
    0.0000    0.4125    0.0000 C   0  0  0  0  0  0  0  2  0  0  0  0
    0.0000    1.2375    0.0000 Cl  0  0  0  0  0  0  0  2  0  0  0  0
  1  2  1  0        0
  2  3  4  0        0
  3  4  1  0        0
  3  5  4  0        0
  5  6  4  0        0
  6  7  1  0        0
  6  8  4  0        0
  8  9  4  0        0
  2  9  4  0        0
  9 10  1  0        0
M  END
>  <CAS RN>
609198

>  <SMILES>
Clc1c(Cl)cc(O)cc1Cl

>  <Measured or Estimated Log10(mmol/L)>
-2.462943826

$$$$

CDXL12

 13 13  0  0  0  0  0  0  0  0999 V2000
    1.0717   -1.6500    0.0000 O   0  0  0  0  0  0  0  2  0  0  0  0
    1.0717   -0.8250    0.0000 N   0  0  0  0  0  0  0  2  0  0  0  0
    1.7862   -0.4125    0.0000 O   0  0  0  0  0  0  0  2  0  0  0  0
    0.3572   -0.4125    0.0000 C   0  0  0  0  0  0  0  2  0  0  0  0
    0.3572    0.4125    0.0000 C   0  0  0  0  0  0  0  2  0  0  0  0
    1.0717    0.8250    0.0000 N   0  0  0  0  0  0  0  2  0  0  0  0
    1.0717    1.6500    0.0000 O   0  0  0  0  0  0  0  2  0  0  0  0
    1.7862    0.4125    0.0000 O   0  0  0  0  0  0  0  2  0  0  0  0
   -0.3572    0.8250    0.0000 C   0  0  0  0  0  0  0  2  0  0  0  0
   -1.0717    0.4125    0.0000 C   0  0  0  0  0  0  0  2  0  0  0  0
   -1.0717   -0.4125    0.0000 C   0  0  0  0  0  0  0  2  0  0  0  0
   -1.7862   -0.8250    0.0000 C   0  0  0  0  0  0  0  2  0  0  0  0
   -0.3572   -0.8250    0.0000 C   0  0  0  0  0  0  0  2  0  0  0  0
  1  2  2  0        0
  2  3  2  0        0
  2  4  1  0        0
  4  5  4  0        0
  5  6  1  0        0
  6  7  2  0        0
  6  8  2  0        0
  5  9  4  0        0
  9 10  4  0        0
 10 11  4  0        0
 11 12  1  0        0
 11 13  4  0        0
  4 13  4  0        0
M  END
>  <CAS RN>
610399

>  <SMILES>
O=N(=O)c1c(N(=O)=O)ccc(C)c1

>  <Measured or Estimated Log10(mmol/L)>
-1.51

$$$$

CDXL12

 11 11  0  0  0  0  0  0  0  0999 V2000
   -1.0717    1.2375    0.0000 O   0  0  0  0  0  0  0  2  0  0  0  0
   -1.0717    0.4125    0.0000 N   0  0  0  0  0  0  0  2  0  0  0  0
   -1.7862    0.0000    0.0000 O   0  0  0  0  0  0  0  2  0  0  0  0
   -0.3572    0.0000    0.0000 C   0  0  0  0  0  0  0  2  0  0  0  0
    0.3572    0.4125    0.0000 C   0  0  0  0  0  0  0  2  0  0  0  0
    1.0717    0.0000    0.0000 C   0  0  0  0  0  0  0  2  0  0  0  0
    1.0717   -0.8250    0.0000 C   0  0  0  0  0  0  0  2  0  0  0  0
    1.7862   -1.2375    0.0000 Cl  0  0  0  0  0  0  0  2  0  0  0  0
    0.3572   -1.2375    0.0000 C   0  0  0  0  0  0  0  2  0  0  0  0
   -0.3572   -0.8250    0.0000 C   0  0  0  0  0  0  0  2  0  0  0  0
   -1.0717   -1.2375    0.0000 Cl  0  0  0  0  0  0  0  2  0  0  0  0
  1  2  2  0        0
  2  3  2  0        0
  2  4  1  0        0
  4  5  4  0        0
  5  6  4  0        0
  6  7  4  0        0
  7  8  1  0        0
  7  9  4  0        0
  9 10  4  0        0
  4 10  4  0        0
 10 11  1  0        0
M  END
>  <CAS RN>
611063

>  <SMILES>
O=N(=O)c1ccc(Cl)cc1Cl

>  <Measured or Estimated Log10(mmol/L)>
-1.6600542

$$$$

CDXL12

 15 17  0  0  0  0  0  0  0  0999 V2000
    2.5006    0.8250    0.0000 C   0  0  0  0  0  0  0  2  0  0  0  0
    1.7862    0.4125    0.0000 C   0  0  0  0  0  0  0  2  0  0  0  0
    1.0717    0.8250    0.0000 C   0  0  0  0  0  0  0  2  0  0  0  0
    0.3572    0.4125    0.0000 C   0  0  0  0  0  0  0  2  0  0  0  0
   -0.3572    0.8250    0.0000 C   0  0  0  0  0  0  0  2  0  0  0  0
   -1.0717    0.4125    0.0000 C   0  0  0  0  0  0  0  2  0  0  0  0
   -1.7862    0.8250    0.0000 C   0  0  0  0  0  0  0  2  0  0  0  0
   -2.5006    0.4125    0.0000 C   0  0  0  0  0  0  0  2  0  0  0  0
   -2.5006   -0.4125    0.0000 C   0  0  0  0  0  0  0  2  0  0  0  0
   -1.7862   -0.8250    0.0000 C   0  0  0  0  0  0  0  2  0  0  0  0
   -1.0717   -0.4125    0.0000 C   0  0  0  0  0  0  0  2  0  0  0  0
   -0.3572   -0.8250    0.0000 C   0  0  0  0  0  0  0  2  0  0  0  0
    0.3572   -0.4125    0.0000 C   0  0  0  0  0  0  0  2  0  0  0  0
    1.0717   -0.8250    0.0000 C   0  0  0  0  0  0  0  2  0  0  0  0
    1.7862   -0.4125    0.0000 C   0  0  0  0  0  0  0  2  0  0  0  0
  1  2  1  0        0
  2  3  4  0        0
  3  4  4  0        0
  4  5  4  0        0
  5  6  4  0        0
  6  7  4  0        0
  7  8  4  0        0
  8  9  4  0        0
  9 10  4  0        0
 10 11  4  0        0
  6 11  4  0        0
 11 12  4  0        0
 12 13  4  0        0
  4 13  4  0        0
 13 14  4  0        0
 14 15  4  0        0
  2 15  4  0        0
M  END
>  <CAS RN>
613127

>  <SMILES>
Cc1cc2cc3ccccc3cc2cc1

>  <Measured or Estimated Log10(mmol/L)>
-3.3

$$$$

CDXL12

  8  8  0  0  0  0  0  0  0  0999 V2000
    1.0717    0.8250    0.0000 N   0  0  0  0  0  0  0  2  0  0  0  0
    0.3572    0.4125    0.0000 C   0  0  0  0  0  0  0  2  0  0  0  0
    0.3572   -0.4125    0.0000 C   0  0  0  0  0  0  0  2  0  0  0  0
   -0.3572   -0.8250    0.0000 C   0  0  0  0  0  0  0  2  0  0  0  0
   -1.0717   -0.4125    0.0000 C   0  0  0  0  0  0  0  2  0  0  0  0
   -1.0717    0.4125    0.0000 C   0  0  0  0  0  0  0  2  0  0  0  0
   -0.3572    0.8250    0.0000 C   0  0  0  0  0  0  0  2  0  0  0  0
    1.0717   -0.8250    0.0000 Br  0  0  0  0  0  0  0  2  0  0  0  0
  1  2  1  0        0
  2  3  4  0        0
  3  4  4  0        0
  4  5  4  0        0
  5  6  4  0        0
  6  7  4  0        0
  2  7  4  0        0
  3  8  1  0        0
M  END
>  <CAS RN>
615361

>  <SMILES>
Nc1c(cccc1)Br

>  <Measured or Estimated Log10(mmol/L)>
-1.83642423

$$$$

CDXL12

  9  8  0  0  0  0  0  0  0  0999 V2000
   -2.1434    0.2062    0.0000 C   0  0  0  0  0  0  0  2  0  0  0  0
   -1.4289   -0.2063    0.0000 C   0  0  0  0  0  0  0  2  0  0  0  0
   -1.4289   -1.0312    0.0000 O   0  0  0  0  0  0  0  2  0  0  0  0
   -0.7145    0.2062    0.0000 C   0  0  0  0  0  0  0  2  0  0  0  0
   -0.7145    1.0312    0.0000 O   0  0  0  0  0  0  0  2  0  0  0  0
    0.0000   -0.2063    0.0000 O   0  0  0  0  0  0  0  2  0  0  0  0
    0.7145    0.2062    0.0000 C   0  0  0  0  0  0  0  2  0  0  0  0
    1.4289   -0.2063    0.0000 C   0  0  0  0  0  0  0  2  0  0  0  0
    2.1434    0.2062    0.0000 C   0  0  0  0  0  0  0  2  0  0  0  0
  1  2  1  0        0
  2  3  1  0        0
  2  4  1  0        0
  4  5  2  0        0
  4  6  1  0        0
  6  7  1  0        0
  7  8  1  0        0
  8  9  1  0        0
M  END
>  <CAS RN>
616091

>  <SMILES>
CC(O)C(=O)OCCC

>  <Measured or Estimated Log10(mmol/L)>
0.494853318

$$$$

CDXL12

  6  5  0  0  0  0  0  0  0  0999 V2000
    1.4289   -0.2062    0.0000 O   0  0  0  0  0  0  0  2  0  0  0  0
    0.7145   -0.6188    0.0000 C   0  0  0  0  0  0  0  2  0  0  0  0
    0.0000   -0.2062    0.0000 C   0  0  0  0  0  0  0  2  0  0  0  0
   -0.7145   -0.6187    0.0000 C   0  0  0  0  0  0  0  2  0  0  0  0
   -1.4289   -0.2062    0.0000 Cl  0  0  0  0  0  0  0  2  0  0  0  0
    0.0000    0.6188    0.0000 Cl  0  0  0  0  0  0  0  2  0  0  0  0
  1  2  1  0        0
  2  3  1  0        0
  3  4  1  0        0
  4  5  1  0        0
  3  6  1  0        0
M  END
>  <CAS RN>
616239

>  <SMILES>
OCC(CCl)Cl

>  <Measured or Estimated Log10(mmol/L)>
0.619036771

$$$$

CDXL12

  6  6  0  0  0  0  0  0  0  0999 V2000
    1.0597    0.4048    0.0000 O   0  0  0  0  0  0  0  2  0  0  0  0
    0.2751    0.1498    0.0000 C   0  0  0  0  0  0  0  2  0  0  0  0
    0.0202   -0.6348    0.0000 N   0  0  0  0  0  0  0  2  0  0  0  0
   -0.8048   -0.6348    0.0000 C   0  0  0  0  0  0  0  2  0  0  0  0
   -1.0597    0.1498    0.0000 C   0  0  0  0  0  0  0  2  0  0  0  0
   -0.3923    0.6348    0.0000 C   0  0  0  0  0  0  0  2  0  0  0  0
  1  2  2  0        0
  2  3  1  0        0
  3  4  1  0        0
  4  5  1  0        0
  5  6  1  0        0
  2  6  1  0        0
M  END
>  <CAS RN>
616455

>  <SMILES>
O=C1NCCC1

>  <Measured or Estimated Log10(mmol/L)>
-0.81

$$$$

CDXL12

 11 11  0  0  0  0  0  0  0  0999 V2000
   -1.0717    1.6500    0.0000 O   0  0  0  0  0  0  0  2  0  0  0  0
   -1.0717    0.8250    0.0000 N   0  0  0  0  0  0  0  2  0  0  0  0
   -1.7862    0.4125    0.0000 O   0  0  0  0  0  0  0  2  0  0  0  0
   -0.3572    0.4125    0.0000 C   0  0  0  0  0  0  0  2  0  0  0  0
   -0.3572   -0.4125    0.0000 C   0  0  0  0  0  0  0  2  0  0  0  0
    0.3572   -0.8250    0.0000 C   0  0  0  0  0  0  0  2  0  0  0  0
    0.3572   -1.6500    0.0000 Cl  0  0  0  0  0  0  0  2  0  0  0  0
    1.0717   -0.4125    0.0000 C   0  0  0  0  0  0  0  2  0  0  0  0
    1.0717    0.4125    0.0000 C   0  0  0  0  0  0  0  2  0  0  0  0
    1.7862    0.8250    0.0000 Cl  0  0  0  0  0  0  0  2  0  0  0  0
    0.3572    0.8250    0.0000 C   0  0  0  0  0  0  0  2  0  0  0  0
  1  2  2  0        0
  2  3  2  0        0
  2  4  1  0        0
  4  5  4  0        0
  5  6  4  0        0
  6  7  1  0        0
  6  8  4  0        0
  8  9  4  0        0
  9 10  1  0        0
  9 11  4  0        0
  4 11  4  0        0
M  END
>  <CAS RN>
618622

>  <SMILES>
O=N(=O)c1cc(Cl)cc(Cl)c1

>  <Measured or Estimated Log10(mmol/L)>
-1.408242227

$$$$

CDXL12

 10 10  0  0  0  0  0  0  0  0999 V2000
   -1.0717    0.4125    0.0000 O   0  0  0  0  0  0  0  2  0  0  0  0
   -1.0717   -0.4125    0.0000 C   0  0  0  0  0  0  0  2  0  0  0  0
   -0.3572   -0.8250    0.0000 O   0  0  0  0  0  0  0  2  0  0  0  0
    0.3572   -0.4125    0.0000 C   0  0  0  0  0  0  0  2  0  0  0  0
    1.0717   -0.8250    0.0000 C   0  0  0  0  0  0  0  2  0  0  0  0
    1.7862   -0.4125    0.0000 C   0  0  0  0  0  0  0  2  0  0  0  0
    1.7862    0.4125    0.0000 C   0  0  0  0  0  0  0  2  0  0  0  0
    1.0717    0.8250    0.0000 C   0  0  0  0  0  0  0  2  0  0  0  0
    0.3572    0.4125    0.0000 C   0  0  0  0  0  0  0  2  0  0  0  0
   -1.7862   -0.8250    0.0000 C   0  0  0  0  0  0  0  2  0  0  0  0
  1  2  2  0        0
  2  3  1  0        0
  3  4  1  0        0
  4  5  1  0        0
  5  6  1  0        0
  6  7  1  0        0
  7  8  1  0        0
  8  9  1  0        0
  4  9  1  0        0
  2 10  1  0        0
M  END
>  <CAS RN>
622457

>  <SMILES>
O=C(OC1CCCCC1)C

>  <Measured or Estimated Log10(mmol/L)>
0.0884347

$$$$

CDXL12

 10 10  0  0  0  0  0  0  0  0999 V2000
    0.7145   -0.2062    0.0000 N   0  0  0  0  0  0  0  2  0  0  0  0
    1.4289   -0.6188    0.0000 C   0  0  0  0  0  0  0  2  0  0  0  0
    2.1434   -1.0313    0.0000 S   0  0  0  0  0  0  0  2  0  0  0  0
    0.0000   -0.6188    0.0000 C   0  0  0  0  0  0  0  2  0  0  0  0
   -0.7145   -0.2063    0.0000 C   0  0  0  0  0  0  0  2  0  0  0  0
   -1.4289   -0.6188    0.0000 C   0  0  0  0  0  0  0  2  0  0  0  0
   -2.1434   -0.2062    0.0000 C   0  0  0  0  0  0  0  2  0  0  0  0
   -2.1434    0.6188    0.0000 C   0  0  0  0  0  0  0  2  0  0  0  0
   -1.4289    1.0313    0.0000 C   0  0  0  0  0  0  0  2  0  0  0  0
   -0.7145    0.6188    0.0000 C   0  0  0  0  0  0  0  2  0  0  0  0
  1  2  2  0        0
  2  3  2  0        0
  1  4  1  0        0
  4  5  1  0        0
  5  6  4  0        0
  6  7  4  0        0
  7  8  4  0        0
  8  9  4  0        0
  9 10  4  0        0
  5 10  4  0        0
M  END
>  <CAS RN>
622786

>  <SMILES>
N(=C=S)Cc1ccccc1

>  <Measured or Estimated Log10(mmol/L)>
-3.540344028

$$$$

CDXL12

  7  6  0  0  0  0  0  0  0  0999 V2000
    0.3572    0.6187    0.0000 O   0  0  0  0  0  0  0  2  0  0  0  0
    0.3572   -0.2062    0.0000 C   0  0  0  0  0  0  0  2  0  0  0  0
   -0.3572   -0.6187    0.0000 C   0  0  0  0  0  0  0  2  0  0  0  0
   -1.0717   -0.2062    0.0000 C   0  0  0  0  0  0  0  2  0  0  0  0
   -1.7862   -0.6187    0.0000 C   0  0  0  0  0  0  0  2  0  0  0  0
    1.0717   -0.6187    0.0000 C   0  0  0  0  0  0  0  2  0  0  0  0
    1.7862   -0.2062    0.0000 C   0  0  0  0  0  0  0  2  0  0  0  0
  1  2  1  0        0
  2  3  1  0        0
  3  4  1  0        0
  4  5  1  0        0
  2  6  1  0        0
  6  7  1  0        0
M  END
>  <CAS RN>
623370

>  <SMILES>
OC(CCC)CC

>  <Measured or Estimated Log10(mmol/L)>
0.717908656

$$$$

CDXL12

  8  8  0  0  0  0  0  0  0  0999 V2000
    0.7145    0.4125    0.0000 C   0  0  0  0  0  0  0  2  0  0  0  0
    0.7145   -0.4125    0.0000 C   0  0  0  0  0  0  0  2  0  0  0  0
    0.0000   -0.8250    0.0000 C   0  0  0  0  0  0  0  2  0  0  0  0
   -0.7145   -0.4125    0.0000 C   0  0  0  0  0  0  0  2  0  0  0  0
   -0.7145    0.4125    0.0000 C   0  0  0  0  0  0  0  2  0  0  0  0
    0.0000    0.8250    0.0000 C   0  0  0  0  0  0  0  2  0  0  0  0
   -1.4289   -0.8250    0.0000 I   0  0  0  0  0  0  0  2  0  0  0  0
    1.4289    0.8250    0.0000 I   0  0  0  0  0  0  0  2  0  0  0  0
  1  2  4  0        0
  2  3  4  0        0
  3  4  4  0        0
  4  5  4  0        0
  5  6  4  0        0
  1  6  4  0        0
  4  7  1  0        0
  1  8  1  0        0
M  END
>  <CAS RN>
624384

>  <SMILES>
c1(ccc(cc1)I)I

>  <Measured or Estimated Log10(mmol/L)>
-2.594110924

$$$$

CDXL12

  6  5  0  0  0  0  0  0  0  0999 V2000
    0.0000   -0.6187    0.0000 N   0  0  0  0  0  0  0  2  0  0  0  0
   -0.7145   -0.2062    0.0000 C   0  0  0  0  0  0  0  2  0  0  0  0
   -1.4289   -0.6187    0.0000 C   0  0  0  0  0  0  0  2  0  0  0  0
    0.7145   -0.2062    0.0000 C   0  0  0  0  0  0  0  2  0  0  0  0
    1.4289   -0.6187    0.0000 N   0  0  0  0  0  0  0  2  0  0  0  0
    0.7145    0.6187    0.0000 S   0  0  0  0  0  0  0  2  0  0  0  0
  1  2  1  0        0
  2  3  1  0        0
  1  4  1  0        0
  4  5  1  0        0
  4  6  2  0        0
M  END
>  <CAS RN>
625536

>  <SMILES>
N(CC)C(N)=S

>  <Measured or Estimated Log10(mmol/L)>
-0.871635473

$$$$

CDXL12

  8  8  0  0  0  0  0  0  0  0999 V2000
    1.4289    0.8250    0.0000 F   0  0  0  0  0  0  0  2  0  0  0  0
    0.7145    0.4125    0.0000 C   0  0  0  0  0  0  0  2  0  0  0  0
    0.7145   -0.4125    0.0000 C   0  0  0  0  0  0  0  2  0  0  0  0
    0.0000   -0.8250    0.0000 C   0  0  0  0  0  0  0  2  0  0  0  0
   -0.7145   -0.4125    0.0000 C   0  0  0  0  0  0  0  2  0  0  0  0
   -0.7145    0.4125    0.0000 C   0  0  0  0  0  0  0  2  0  0  0  0
   -1.4289    0.8250    0.0000 Cl  0  0  0  0  0  0  0  2  0  0  0  0
    0.0000    0.8250    0.0000 C   0  0  0  0  0  0  0  2  0  0  0  0
  1  2  1  0        0
  2  3  4  0        0
  3  4  4  0        0
  4  5  4  0        0
  5  6  4  0        0
  6  7  1  0        0
  6  8  4  0        0
  2  8  4  0        0
M  END
>  <CAS RN>
625989

>  <SMILES>
Fc1cccc(Cl)c1

>  <Measured or Estimated Log10(mmol/L)>
-1.554672153

$$$$

CDXL12

  9  9  0  0  0  0  0  0  0  0999 V2000
    0.7145   -0.0000    0.0000 C   0  0  0  0  0  0  0  2  0  0  0  0
    0.0000   -0.4125    0.0000 C   0  0  0  0  0  0  0  2  0  0  0  0
   -0.7145   -0.0000    0.0000 C   0  0  0  0  0  0  0  2  0  0  0  0
   -0.7145    0.8250    0.0000 C   0  0  0  0  0  0  0  2  0  0  0  0
    0.0000    1.2375    0.0000 C   0  0  0  0  0  0  0  2  0  0  0  0
    0.7145    0.8250    0.0000 C   0  0  0  0  0  0  0  2  0  0  0  0
    1.4289    1.2375    0.0000 Cl  0  0  0  0  0  0  0  2  0  0  0  0
   -1.4289    1.2375    0.0000 Cl  0  0  0  0  0  0  0  2  0  0  0  0
    0.0000   -1.2375    0.0000 N   0  0  0  0  0  0  0  2  0  0  0  0
  1  2  4  0        0
  2  3  4  0        0
  3  4  4  0        0
  4  5  4  0        0
  5  6  4  0        0
  1  6  4  0        0
  6  7  1  0        0
  4  8  1  0        0
  2  9  1  0        0
M  END
>  <CAS RN>
626437

>  <SMILES>
c1c(cc(cc1Cl)Cl)N

>  <Measured or Estimated Log10(mmol/L)>
-2.160347925

$$$$

CDXL12

  7  7  0  0  0  0  0  0  0  0999 V2000
    0.3572    0.4125    0.0000 C   0  0  0  0  0  0  0  2  0  0  0  0
    0.3572   -0.4125    0.0000 C   0  0  0  0  0  0  0  2  0  0  0  0
   -0.3572   -0.8250    0.0000 C   0  0  0  0  0  0  0  2  0  0  0  0
   -1.0717   -0.4125    0.0000 C   0  0  0  0  0  0  0  2  0  0  0  0
   -1.0717    0.4125    0.0000 C   0  0  0  0  0  0  0  2  0  0  0  0
   -0.3572    0.8250    0.0000 C   0  0  0  0  0  0  0  2  0  0  0  0
    1.0717    0.8250    0.0000 I   0  0  0  0  0  0  0  2  0  0  0  0
  1  2  1  0        0
  2  3  1  0        0
  3  4  1  0        0
  4  5  1  0        0
  5  6  1  0        0
  1  6  1  0        0
  1  7  1  0        0
M  END
>  <CAS RN>
626620

>  <SMILES>
C1(CCCCC1)I

>  <Measured or Estimated Log10(mmol/L)>
-1.47

$$$$

CDXL12

  7  6  0  0  0  0  0  0  0  0999 V2000
    1.0717    0.6187    0.0000 O   0  0  0  0  0  0  0  2  0  0  0  0
    1.0717   -0.2062    0.0000 C   0  0  0  0  0  0  0  2  0  0  0  0
    0.3572   -0.6187    0.0000 C   0  0  0  0  0  0  0  2  0  0  0  0
   -0.3572   -0.2062    0.0000 C   0  0  0  0  0  0  0  2  0  0  0  0
   -1.0717   -0.6187    0.0000 C   0  0  0  0  0  0  0  2  0  0  0  0
   -1.7862   -0.2062    0.0000 C   0  0  0  0  0  0  0  2  0  0  0  0
    1.7862   -0.6187    0.0000 C   0  0  0  0  0  0  0  2  0  0  0  0
  1  2  1  0        0
  2  3  1  0        0
  3  4  1  0        0
  4  5  1  0        0
  5  6  1  0        0
  2  7  1  0        0
M  END
>  <CAS RN>
626937

>  <SMILES>
OC(CCCC)C

>  <Measured or Estimated Log10(mmol/L)>
0.554723042

$$$$

CDXL12

  9  8  0  0  0  0  0  0  0  0999 V2000
   -1.7862    0.6187    0.0000 O   0  0  0  0  0  0  0  2  0  0  0  0
   -1.7862   -0.2062    0.0000 C   0  0  0  0  0  0  0  2  0  0  0  0
   -1.0717   -0.6187    0.0000 O   0  0  0  0  0  0  0  2  0  0  0  0
   -0.3572   -0.2062    0.0000 C   0  0  0  0  0  0  0  2  0  0  0  0
    0.3572   -0.6187    0.0000 C   0  0  0  0  0  0  0  2  0  0  0  0
    1.0717   -0.2062    0.0000 C   0  0  0  0  0  0  0  2  0  0  0  0
    1.7862   -0.6187    0.0000 C   0  0  0  0  0  0  0  2  0  0  0  0
    2.5006   -0.2062    0.0000 C   0  0  0  0  0  0  0  2  0  0  0  0
   -2.5006   -0.6187    0.0000 C   0  0  0  0  0  0  0  2  0  0  0  0
  1  2  2  0        0
  2  3  1  0        0
  3  4  1  0        0
  4  5  1  0        0
  5  6  1  0        0
  6  7  1  0        0
  7  8  1  0        0
  2  9  1  0        0
M  END
>  <CAS RN>
628637

>  <SMILES>
O=C(OCCCCC)C

>  <Measured or Estimated Log10(mmol/L)>
-0.0773749

$$$$

CDXL12

  6  5  0  0  0  0  0  0  0  0999 V2000
   -0.3572   -0.2063    0.0000 C   0  0  0  0  0  0  0  2  0  0  0  0
    0.3572   -0.6188    0.0000 C   0  0  0  0  0  0  0  2  0  0  0  0
    1.0717   -0.2062    0.0000 Cl  0  0  0  0  0  0  0  2  0  0  0  0
   -1.0717   -0.6188    0.0000 Cl  0  0  0  0  0  0  0  2  0  0  0  0
   -0.3572    0.6188    0.0000 Cl  0  0  0  0  0  0  0  2  0  0  0  0
   -1.0717    0.2062    0.0000 Cl  0  0  0  0  0  0  0  2  0  0  0  0
  1  2  1  0        0
  2  3  1  0        0
  1  4  1  0        0
  1  5  1  0        0
  1  6  1  0        0
M  END
>  <CAS RN>
630206

>  <SMILES>
C(CCl)(Cl)(Cl)Cl

>  <Measured or Estimated Log10(mmol/L)>
-0.844710104

$$$$

CDXL12

  6  5  0  0  0  0  0  0  0  0999 V2000
   -1.0717   -0.2062    0.0000 C   0  0  0  0  0  0  0  2  0  0  0  0
   -0.3572    0.2062    0.0000 C   0  0  0  0  0  0  0  2  0  0  0  0
   -0.3572    1.0313    0.0000 S   0  0  0  0  0  0  0  2  0  0  0  0
    0.3572   -0.2062    0.0000 N   0  0  0  0  0  0  0  2  0  0  0  0
    1.0717    0.2062    0.0000 C   0  0  0  0  0  0  0  2  0  0  0  0
    0.3572   -1.0313    0.0000 C   0  0  0  0  0  0  0  2  0  0  0  0
  1  2  1  0        0
  2  3  2  0        0
  2  4  1  0        0
  4  5  1  0        0
  4  6  1  0        0
M  END
>  <CAS RN>
631674

>  <SMILES>
CC(=S)N(C)C

>  <Measured or Estimated Log10(mmol/L)>
0.606511069

$$$$

CDXL12

  8  7  0  0  0  0  0  0  0  0999 V2000
    0.0000    1.0313    0.0000 O   0  0  0  0  0  0  0  2  0  0  0  0
    0.0000    0.2062    0.0000 C   0  0  0  0  0  0  0  2  0  0  0  0
   -0.7145   -0.2062    0.0000 N   0  0  0  0  0  0  0  2  0  0  0  0
   -0.7145   -1.0312    0.0000 C   0  0  0  0  0  0  0  2  0  0  0  0
   -1.4289    0.2062    0.0000 C   0  0  0  0  0  0  0  2  0  0  0  0
    0.7145   -0.2062    0.0000 N   0  0  0  0  0  0  0  2  0  0  0  0
    1.4289    0.2062    0.0000 C   0  0  0  0  0  0  0  2  0  0  0  0
    0.7145   -1.0313    0.0000 C   0  0  0  0  0  0  0  2  0  0  0  0
  1  2  2  0        0
  2  3  1  0        0
  3  4  1  0        0
  3  5  1  0        0
  2  6  1  0        0
  6  7  1  0        0
  6  8  1  0        0
M  END
>  <CAS RN>
632224

>  <SMILES>
O=C(N(C)C)N(C)C

>  <Measured or Estimated Log10(mmol/L)>
1.39732644

$$$$

CDXL12

 10 10  0  0  0  0  0  0  0  0999 V2000
    0.7145    0.8250    0.0000 C   0  0  0  0  0  0  0  2  0  0  0  0
    0.7145   -0.0000    0.0000 C   0  0  0  0  0  0  0  2  0  0  0  0
    0.0000   -0.4125    0.0000 C   0  0  0  0  0  0  0  2  0  0  0  0
   -0.7145   -0.0000    0.0000 C   0  0  0  0  0  0  0  2  0  0  0  0
   -0.7145    0.8250    0.0000 C   0  0  0  0  0  0  0  2  0  0  0  0
    0.0000    1.2375    0.0000 C   0  0  0  0  0  0  0  2  0  0  0  0
   -1.4289   -0.4125    0.0000 Cl  0  0  0  0  0  0  0  2  0  0  0  0
    0.0000   -1.2375    0.0000 Cl  0  0  0  0  0  0  0  2  0  0  0  0
    1.4289   -0.4125    0.0000 Cl  0  0  0  0  0  0  0  2  0  0  0  0
    1.4289    1.2375    0.0000 Cl  0  0  0  0  0  0  0  2  0  0  0  0
  1  2  4  0        0
  2  3  4  0        0
  3  4  4  0        0
  4  5  4  0        0
  5  6  4  0        0
  1  6  4  0        0
  4  7  1  0        0
  3  8  1  0        0
  2  9  1  0        0
  1 10  1  0        0
M  END
>  <CAS RN>
634662

>  <SMILES>
c1(c(c(c(cc1)Cl)Cl)Cl)Cl

>  <Measured or Estimated Log10(mmol/L)>
-2.887082531

$$$$

CDXL12

 11 11  0  0  0  0  0  0  0  0999 V2000
    0.0000   -1.2375    0.0000 C   0  0  0  0  0  0  0  2  0  0  0  0
   -0.7145   -0.8250    0.0000 C   0  0  0  0  0  0  0  2  0  0  0  0
   -0.7145   -0.0000    0.0000 C   0  0  0  0  0  0  0  2  0  0  0  0
    0.0000    0.4125    0.0000 C   0  0  0  0  0  0  0  2  0  0  0  0
    0.7145   -0.0000    0.0000 C   0  0  0  0  0  0  0  2  0  0  0  0
    0.7145   -0.8250    0.0000 C   0  0  0  0  0  0  0  2  0  0  0  0
    1.4289   -1.2375    0.0000 Cl  0  0  0  0  0  0  0  2  0  0  0  0
    1.4289    0.4125    0.0000 Cl  0  0  0  0  0  0  0  2  0  0  0  0
    0.0000    1.2375    0.0000 Cl  0  0  0  0  0  0  0  2  0  0  0  0
   -1.4289    0.4125    0.0000 Cl  0  0  0  0  0  0  0  2  0  0  0  0
   -1.4289   -1.2375    0.0000 N   0  0  0  0  0  0  0  2  0  0  0  0
  1  2  4  0        0
  2  3  4  0        0
  3  4  4  0        0
  4  5  4  0        0
  5  6  4  0        0
  1  6  4  0        0
  6  7  1  0        0
  5  8  1  0        0
  4  9  1  0        0
  3 10  1  0        0
  2 11  1  0        0
M  END
>  <CAS RN>
634833

>  <SMILES>
c1c(c(c(c(c1Cl)Cl)Cl)Cl)N

>  <Measured or Estimated Log10(mmol/L)>
-2.557260886

$$$$

CDXL12

 10 10  0  0  0  0  0  0  0  0999 V2000
   -0.7145   -0.8250    0.0000 C   0  0  0  0  0  0  0  2  0  0  0  0
   -0.7145    0.0000    0.0000 C   0  0  0  0  0  0  0  2  0  0  0  0
    0.0000    0.4125    0.0000 C   0  0  0  0  0  0  0  2  0  0  0  0
    0.7145   -0.0000    0.0000 C   0  0  0  0  0  0  0  2  0  0  0  0
    0.7145   -0.8250    0.0000 C   0  0  0  0  0  0  0  2  0  0  0  0
    1.4289   -1.2375    0.0000 Cl  0  0  0  0  0  0  0  2  0  0  0  0
    0.0000   -1.2375    0.0000 C   0  0  0  0  0  0  0  2  0  0  0  0
    1.4289    0.4125    0.0000 Cl  0  0  0  0  0  0  0  2  0  0  0  0
    0.0000    1.2375    0.0000 Cl  0  0  0  0  0  0  0  2  0  0  0  0
   -1.4289   -1.2375    0.0000 Cl  0  0  0  0  0  0  0  2  0  0  0  0
  1  2  4  0        0
  2  3  4  0        0
  3  4  4  0        0
  4  5  4  0        0
  5  6  1  0        0
  5  7  4  0        0
  1  7  4  0        0
  4  8  1  0        0
  3  9  1  0        0
  1 10  1  0        0
M  END
>  <CAS RN>
634902

>  <SMILES>
c1(cc(c(c(Cl)c1)Cl)Cl)Cl

>  <Measured or Estimated Log10(mmol/L)>
-1.347468839

$$$$

CDXL12

 10 10  0  0  0  0  0  0  0  0999 V2000
    1.4289    0.4125    0.0000 N   0  0  0  0  0  0  0  2  0  0  0  0
    0.7145    0.0000    0.0000 C   0  0  0  0  0  0  0  2  0  0  0  0
    0.7145   -0.8250    0.0000 C   0  0  0  0  0  0  0  2  0  0  0  0
    0.0000   -1.2375    0.0000 C   0  0  0  0  0  0  0  2  0  0  0  0
   -0.7145   -0.8250    0.0000 C   0  0  0  0  0  0  0  2  0  0  0  0
   -0.7145    0.0000    0.0000 C   0  0  0  0  0  0  0  2  0  0  0  0
    0.0000    0.4125    0.0000 C   0  0  0  0  0  0  0  2  0  0  0  0
    0.0000    1.2375    0.0000 Cl  0  0  0  0  0  0  0  2  0  0  0  0
   -1.4289   -1.2375    0.0000 Cl  0  0  0  0  0  0  0  2  0  0  0  0
    1.4289   -1.2375    0.0000 Cl  0  0  0  0  0  0  0  2  0  0  0  0
  1  2  1  0        0
  2  3  4  0        0
  3  4  4  0        0
  4  5  4  0        0
  5  6  4  0        0
  6  7  4  0        0
  2  7  4  0        0
  7  8  1  0        0
  5  9  1  0        0
  3 10  1  0        0
M  END
>  <CAS RN>
634935

>  <SMILES>
Nc1c(cc(cc1Cl)Cl)Cl

>  <Measured or Estimated Log10(mmol/L)>
-1.538428249

$$$$

CDXL12

 10 10  0  0  0  0  0  0  0  0999 V2000
    1.4289   -0.8250    0.0000 Cl  0  0  0  0  0  0  0  2  0  0  0  0
    0.7145   -0.4125    0.0000 C   0  0  0  0  0  0  0  2  0  0  0  0
    0.0000   -0.8250    0.0000 C   0  0  0  0  0  0  0  2  0  0  0  0
   -0.7145   -0.4125    0.0000 C   0  0  0  0  0  0  0  2  0  0  0  0
   -1.4289   -0.8250    0.0000 Cl  0  0  0  0  0  0  0  2  0  0  0  0
   -0.7145    0.4125    0.0000 C   0  0  0  0  0  0  0  2  0  0  0  0
   -1.4289    0.8250    0.0000 N   0  0  0  0  0  0  0  2  0  0  0  0
    0.0000    0.8250    0.0000 C   0  0  0  0  0  0  0  2  0  0  0  0
    0.7145    0.4125    0.0000 C   0  0  0  0  0  0  0  2  0  0  0  0
    1.4289    0.8250    0.0000 Cl  0  0  0  0  0  0  0  2  0  0  0  0
  1  2  1  0        0
  2  3  4  0        0
  3  4  4  0        0
  4  5  1  0        0
  4  6  4  0        0
  6  7  1  0        0
  6  8  4  0        0
  8  9  4  0        0
  2  9  4  0        0
  9 10  1  0        0
M  END
>  <CAS RN>
636306

>  <SMILES>
Clc1cc(Cl)c(N)cc1Cl

>  <Measured or Estimated Log10(mmol/L)>
-1.761804065

$$$$

CDXL12

 20 22  0  0  0  0  0  0  0  0999 V2000
    0.0000   -1.2375    0.0000 Cl  0  0  0  0  0  0  0  2  0  0  0  0
    0.0000   -0.4125    0.0000 Sn  0  0  0  0  0  0  0  2  0  0  0  0
   -0.7145   -0.8250    0.0000 C   0  0  0  0  0  0  0  2  0  0  0  0
   -0.7145   -1.6500    0.0000 C   0  0  0  0  0  0  0  2  0  0  0  0
   -1.4289   -2.0625    0.0000 C   0  0  0  0  0  0  0  2  0  0  0  0
   -2.1434   -1.6500    0.0000 C   0  0  0  0  0  0  0  2  0  0  0  0
   -2.1434   -0.8250    0.0000 C   0  0  0  0  0  0  0  2  0  0  0  0
   -1.4289   -0.4125    0.0000 C   0  0  0  0  0  0  0  2  0  0  0  0
    0.7145   -0.8250    0.0000 C   0  0  0  0  0  0  0  2  0  0  0  0
    1.4289   -0.4125    0.0000 C   0  0  0  0  0  0  0  2  0  0  0  0
    2.1434   -0.8250    0.0000 C   0  0  0  0  0  0  0  2  0  0  0  0
    2.1434   -1.6500    0.0000 C   0  0  0  0  0  0  0  2  0  0  0  0
    1.4289   -2.0625    0.0000 C   0  0  0  0  0  0  0  2  0  0  0  0
    0.7145   -1.6500    0.0000 C   0  0  0  0  0  0  0  2  0  0  0  0
    0.0000    0.4125    0.0000 C   0  0  0  0  0  0  0  2  0  0  0  0
   -0.7145    0.8250    0.0000 C   0  0  0  0  0  0  0  2  0  0  0  0
   -0.7145    1.6500    0.0000 C   0  0  0  0  0  0  0  2  0  0  0  0
    0.0000    2.0625    0.0000 C   0  0  0  0  0  0  0  2  0  0  0  0
    0.7145    1.6500    0.0000 C   0  0  0  0  0  0  0  2  0  0  0  0
    0.7145    0.8250    0.0000 C   0  0  0  0  0  0  0  2  0  0  0  0
  1  2  1  0        0
  2  3  1  0        0
  3  4  4  0        0
  4  5  4  0        0
  5  6  4  0        0
  6  7  4  0        0
  7  8  4  0        0
  3  8  4  0        0
  2  9  1  0        0
  9 10  4  0        0
 10 11  4  0        0
 11 12  4  0        0
 12 13  4  0        0
 13 14  4  0        0
  9 14  4  0        0
  2 15  1  0        0
 15 16  4  0        0
 16 17  4  0        0
 17 18  4  0        0
 18 19  4  0        0
 19 20  4  0        0
 15 20  4  0        0
M  END
>  <CAS RN>
639587

>  <SMILES>
Cl[Sn](c1ccccc1)(c1ccccc1)c1ccccc1

>  <Measured or Estimated Log10(mmol/L)>
-4.7614961

$$$$

CDXL12

 12 11  0  0  0  0  0  0  0  0999 V2000
    2.8579    0.2062    0.0000 C   0  0  0  0  0  0  0  2  0  0  0  0
    2.1434   -0.2062    0.0000 C   0  0  0  0  0  0  0  2  0  0  0  0
    1.4289    0.2062    0.0000 S   0  0  0  0  0  0  0  2  0  0  0  0
    0.7145   -0.2062    0.0000 C   0  0  0  0  0  0  0  2  0  0  0  0
   -0.0000    0.2062    0.0000 C   0  0  0  0  0  0  0  2  0  0  0  0
   -0.7145   -0.2062    0.0000 S   0  0  0  0  0  0  0  2  0  0  0  0
   -1.4289    0.2062    0.0000 P   0  0  0  0  0  0  0  2  0  0  0  0
   -1.4289    1.0313    0.0000 S   0  0  0  0  0  0  0  2  0  0  0  0
   -2.1434   -0.2062    0.0000 O   0  0  0  0  0  0  0  2  0  0  0  0
   -2.8579    0.2062    0.0000 C   0  0  0  0  0  0  0  2  0  0  0  0
   -1.4289   -0.6188    0.0000 O   0  0  0  0  0  0  0  2  0  0  0  0
   -2.1434   -1.0313    0.0000 C   0  0  0  0  0  0  0  2  0  0  0  0
  1  2  1  0        0
  2  3  1  0        0
  3  4  1  0        0
  4  5  1  0        0
  5  6  1  0        0
  6  7  1  0        0
  7  8  2  0        0
  7  9  1  0        0
  9 10  1  0        0
  7 11  1  0        0
 11 12  1  0        0
M  END
>  <CAS RN>
640153

>  <SMILES>
CCSCCSP(=S)(OC)OC

>  <Measured or Estimated Log10(mmol/L)>
-2.0360008

$$$$

CDXL12

  3  2  0  0  0  0  0  0  0  0999 V2000
    0.8250    0.0000    0.0000 O   0  0  0  0  0  0  0  2  0  0  0  0
    0.0000    0.0000    0.0000 C   0  0  0  0  0  0  0  2  0  0  0  0
   -0.8250    0.0000    0.0000 N   0  0  0  0  0  0  0  2  0  0  0  0
  1  2  1  0        0
  2  3  3  0        0
M  END
>  <CAS RN>
661201

>  <SMILES>
OC#N

>  <Measured or Estimated Log10(mmol/L)>
-0.378448374

$$$$

CDXL12

 11 10  0  0  0  0  0  0  0  0999 V2000
   -0.8102    0.4125    0.0000 O   0  0  0  0  0  0  0  2  0  0  0  0
   -0.0957    0.0000    0.0000 P   0  0  0  0  0  0  0  2  0  0  0  0
    0.6187   -0.4125    0.0000 N   0  0  0  0  0  0  0  2  0  0  0  0
    0.6187   -1.2375    0.0000 C   0  0  0  0  0  0  0  2  0  0  0  0
    1.3332   -0.0000    0.0000 C   0  0  0  0  0  0  0  2  0  0  0  0
   -0.5082   -0.7145    0.0000 N   0  0  0  0  0  0  0  2  0  0  0  0
   -1.3332   -0.7145    0.0000 C   0  0  0  0  0  0  0  2  0  0  0  0
   -0.0957   -1.4289    0.0000 C   0  0  0  0  0  0  0  2  0  0  0  0
    0.3168    0.7145    0.0000 N   0  0  0  0  0  0  0  2  0  0  0  0
    1.1418    0.7145    0.0000 C   0  0  0  0  0  0  0  2  0  0  0  0
   -0.0957    1.4289    0.0000 C   0  0  0  0  0  0  0  2  0  0  0  0
  1  2  2  0        0
  2  3  1  0        0
  3  4  1  0        0
  3  5  1  0        0
  2  6  1  0        0
  6  7  1  0        0
  6  8  1  0        0
  2  9  1  0        0
  9 10  1  0        0
  9 11  1  0        0
M  END
>  <CAS RN>
680319

>  <SMILES>
O=P(N(C)C)(N(C)C)N(C)C

>  <Measured or Estimated Log10(mmol/L)>
1.570778135

$$$$

CDXL12

 11 10  0  0  0  0  0  0  0  0999 V2000
    0.4125    0.5635    0.0000 Cl  0  0  0  0  0  0  0  2  0  0  0  0
    0.0000   -0.1510    0.0000 Sn  0  0  0  0  0  0  0  2  0  0  0  0
   -0.4125    0.5635    0.0000 Cl  0  0  0  0  0  0  0  2  0  0  0  0
    0.7145   -0.5635    0.0000 C   0  0  0  0  0  0  0  2  0  0  0  0
    1.4289   -0.1510    0.0000 C   0  0  0  0  0  0  0  2  0  0  0  0
    2.1434   -0.5635    0.0000 C   0  0  0  0  0  0  0  2  0  0  0  0
    2.8579   -0.1510    0.0000 C   0  0  0  0  0  0  0  2  0  0  0  0
   -0.7145   -0.5635    0.0000 C   0  0  0  0  0  0  0  2  0  0  0  0
   -1.4289   -0.1510    0.0000 C   0  0  0  0  0  0  0  2  0  0  0  0
   -2.1434   -0.5635    0.0000 C   0  0  0  0  0  0  0  2  0  0  0  0
   -2.8579   -0.1510    0.0000 C   0  0  0  0  0  0  0  2  0  0  0  0
  1  2  1  0        0
  2  3  1  0        0
  2  4  1  0        0
  4  5  1  0        0
  5  6  1  0        0
  6  7  1  0        0
  2  8  1  0        0
  8  9  1  0        0
  9 10  1  0        0
 10 11  1  0        0
M  END
>  <CAS RN>
683181

>  <SMILES>
Cl[Sn](Cl)(CCCC)CCCC

>  <Measured or Estimated Log10(mmol/L)>
-2.9168643

$$$$

CDXL12

  8  7  0  0  0  0  0  0  0  0999 V2000
   -1.0717   -1.0312    0.0000 O   0  0  0  0  0  0  0  2  0  0  0  0
   -1.0717   -0.2063    0.0000 C   0  0  0  0  0  0  0  2  0  0  0  0
   -1.7862    0.2062    0.0000 C   0  0  0  0  0  0  0  2  0  0  0  0
   -0.3572    0.2062    0.0000 C   0  0  0  0  0  0  0  2  0  0  0  0
   -0.3572    1.0312    0.0000 O   0  0  0  0  0  0  0  2  0  0  0  0
    0.3572   -0.2063    0.0000 O   0  0  0  0  0  0  0  2  0  0  0  0
    1.0717    0.2062    0.0000 C   0  0  0  0  0  0  0  2  0  0  0  0
    1.7862   -0.2063    0.0000 C   0  0  0  0  0  0  0  2  0  0  0  0
  1  2  1  0        0
  2  3  1  0        0
  2  4  1  0        0
  4  5  2  0        0
  4  6  1  0        0
  6  7  1  0        0
  7  8  1  0        0
M  END
>  <CAS RN>
687478

>  <SMILES>
OC(C)C(=O)OCC

>  <Measured or Estimated Log10(mmol/L)>
0.720024144

$$$$

CDXL12

 13 12  0  0  0  0  0  0  0  0999 V2000
    2.8579    0.6187    0.0000 O   0  0  0  0  0  0  0  2  0  0  0  0
    2.8579   -0.2062    0.0000 N   0  0  0  0  0  0  0  2  0  0  0  0
    3.5724   -0.6188    0.0000 O   0  0  0  0  0  0  0  2  0  0  0  0
    2.1434   -0.6188    0.0000 O   0  0  0  0  0  0  0  2  0  0  0  0
    1.4289   -0.2062    0.0000 C   0  0  0  0  0  0  0  2  0  0  0  0
    0.7145   -0.6188    0.0000 C   0  0  0  0  0  0  0  2  0  0  0  0
   -0.0000   -0.2062    0.0000 O   0  0  0  0  0  0  0  2  0  0  0  0
   -0.7145   -0.6188    0.0000 C   0  0  0  0  0  0  0  2  0  0  0  0
   -1.4289   -0.2062    0.0000 C   0  0  0  0  0  0  0  2  0  0  0  0
   -2.1434   -0.6188    0.0000 O   0  0  0  0  0  0  0  2  0  0  0  0
   -2.8579   -0.2062    0.0000 N   0  0  0  0  0  0  0  2  0  0  0  0
   -3.5724   -0.6187    0.0000 O   0  0  0  0  0  0  0  2  0  0  0  0
   -2.8579    0.6188    0.0000 O   0  0  0  0  0  0  0  2  0  0  0  0
  1  2  2  0        0
  2  3  2  0        0
  2  4  1  0        0
  4  5  1  0        0
  5  6  1  0        0
  6  7  1  0        0
  7  8  1  0        0
  8  9  1  0        0
  9 10  1  0        0
 10 11  1  0        0
 11 12  2  0        0
 11 13  2  0        0
M  END
>  <CAS RN>
693210

>  <SMILES>
O=N(=O)OCCOCCON(=O)=O

>  <Measured or Estimated Log10(mmol/L)>
-0.337786021

$$$$

CDXL12

 10  9  0  0  0  0  0  0  0  0999 V2000
   -3.2151   -0.2062    0.0000 Br  0  0  0  0  0  0  0  2  0  0  0  0
   -2.5006    0.2062    0.0000 C   0  0  0  0  0  0  0  2  0  0  0  0
   -1.7862   -0.2062    0.0000 C   0  0  0  0  0  0  0  2  0  0  0  0
   -1.0717    0.2062    0.0000 C   0  0  0  0  0  0  0  2  0  0  0  0
   -0.3572   -0.2062    0.0000 C   0  0  0  0  0  0  0  2  0  0  0  0
    0.3572    0.2062    0.0000 C   0  0  0  0  0  0  0  2  0  0  0  0
    1.0717   -0.2062    0.0000 C   0  0  0  0  0  0  0  2  0  0  0  0
    1.7862    0.2062    0.0000 C   0  0  0  0  0  0  0  2  0  0  0  0
    2.5006   -0.2062    0.0000 C   0  0  0  0  0  0  0  2  0  0  0  0
    3.2151    0.2062    0.0000 C   0  0  0  0  0  0  0  2  0  0  0  0
  1  2  1  0        0
  2  3  1  0        0
  3  4  1  0        0
  4  5  1  0        0
  5  6  1  0        0
  6  7  1  0        0
  7  8  1  0        0
  8  9  1  0        0
  9 10  1  0        0
M  END
>  <CAS RN>
693583

>  <SMILES>
BrCCCCCCCCC

>  <Measured or Estimated Log10(mmol/L)>
-2.58

$$$$

CDXL12

  8  8  0  0  0  0  0  0  0  0999 V2000
    0.3572    0.4125    0.0000 C   0  0  0  0  0  0  0  2  0  0  0  0
    0.3572   -0.4125    0.0000 C   0  0  0  0  0  0  0  2  0  0  0  0
   -0.3572   -0.8250    0.0000 C   0  0  0  0  0  0  0  2  0  0  0  0
   -1.0717   -0.4125    0.0000 C   0  0  0  0  0  0  0  2  0  0  0  0
   -1.0717    0.4125    0.0000 C   0  0  0  0  0  0  0  2  0  0  0  0
   -0.3572    0.8250    0.0000 C   0  0  0  0  0  0  0  2  0  0  0  0
    1.0717   -0.8250    0.0000 Br  0  0  0  0  0  0  0  2  0  0  0  0
    1.0717    0.8250    0.0000 Cl  0  0  0  0  0  0  0  2  0  0  0  0
  1  2  4  0        0
  2  3  4  0        0
  3  4  4  0        0
  4  5  4  0        0
  5  6  4  0        0
  1  6  4  0        0
  2  7  1  0        0
  1  8  1  0        0
M  END
>  <CAS RN>
694804

>  <SMILES>
c1(c(cccc1)Br)Cl

>  <Measured or Estimated Log10(mmol/L)>
-2.282078041

$$$$

CDXL12

 11 11  0  0  0  0  0  0  0  0999 V2000
    1.7862   -1.2375    0.0000 C   0  0  0  0  0  0  0  2  0  0  0  0
    1.0717   -0.8250    0.0000 C   0  0  0  0  0  0  0  2  0  0  0  0
    1.0717    0.0000    0.0000 C   0  0  0  0  0  0  0  2  0  0  0  0
    0.3572    0.4125    0.0000 C   0  0  0  0  0  0  0  2  0  0  0  0
   -0.3572   -0.0000    0.0000 C   0  0  0  0  0  0  0  2  0  0  0  0
   -1.0717    0.4125    0.0000 N   0  0  0  0  0  0  0  2  0  0  0  0
   -1.0717    1.2375    0.0000 O   0  0  0  0  0  0  0  2  0  0  0  0
   -1.7862   -0.0000    0.0000 O   0  0  0  0  0  0  0  2  0  0  0  0
   -0.3572   -0.8250    0.0000 C   0  0  0  0  0  0  0  2  0  0  0  0
   -1.0717   -1.2375    0.0000 O   0  0  0  0  0  0  0  2  0  0  0  0
    0.3572   -1.2375    0.0000 C   0  0  0  0  0  0  0  2  0  0  0  0
  1  2  1  0        0
  2  3  4  0        0
  3  4  4  0        0
  4  5  4  0        0
  5  6  1  0        0
  6  7  2  0        0
  6  8  2  0        0
  5  9  4  0        0
  9 10  1  0        0
  9 11  4  0        0
  2 11  4  0        0
M  END
>  <CAS RN>
700389

>  <SMILES>
Cc1ccc(N(=O)=O)c(O)c1

>  <Measured or Estimated Log10(mmol/L)>
-0.8649705

$$$$

CDXL12

 11 11  0  0  0  0  0  0  0  0999 V2000
    1.4289    0.4125    0.0000 O   0  0  0  0  0  0  0  2  0  0  0  0
    1.4289   -0.4125    0.0000 C   0  0  0  0  0  0  0  2  0  0  0  0
    0.7145   -0.8250    0.0000 N   0  0  0  0  0  0  0  2  0  0  0  0
    0.0000   -0.4125    0.0000 C   0  0  0  0  0  0  0  2  0  0  0  0
    0.0000    0.4125    0.0000 C   0  0  0  0  0  0  0  2  0  0  0  0
   -0.7145    0.8250    0.0000 C   0  0  0  0  0  0  0  2  0  0  0  0
   -1.4289    0.4125    0.0000 C   0  0  0  0  0  0  0  2  0  0  0  0
   -1.4289   -0.4125    0.0000 C   0  0  0  0  0  0  0  2  0  0  0  0
   -2.1434   -0.8250    0.0000 O   0  0  0  0  0  0  0  2  0  0  0  0
   -0.7145   -0.8250    0.0000 C   0  0  0  0  0  0  0  2  0  0  0  0
    2.1434   -0.8250    0.0000 N   0  0  0  0  0  0  0  2  0  0  0  0
  1  2  2  0        0
  2  3  1  0        0
  3  4  1  0        0
  4  5  4  0        0
  5  6  4  0        0
  6  7  4  0        0
  7  8  4  0        0
  8  9  1  0        0
  8 10  4  0        0
  4 10  4  0        0
  2 11  1  0        0
M  END
>  <CAS RN>
701826

>  <SMILES>
O=C(Nc1cccc(O)c1)N

>  <Measured or Estimated Log10(mmol/L)>
-0.213797563

$$$$

CDXL12

 19 20  0  0  0  0  0  0  0  0999 V2000
    2.9992   -1.4289    0.0000 C   0  0  0  0  0  0  0  2  0  0  0  0
    2.1742   -1.4289    0.0000 O   0  0  0  0  0  0  0  2  0  0  0  0
    1.7617   -0.7145    0.0000 P   0  0  0  0  0  0  0  2  0  0  0  0
    2.1742   -0.0000    0.0000 S   0  0  0  0  0  0  0  2  0  0  0  0
    1.3492   -1.4289    0.0000 O   0  0  0  0  0  0  0  2  0  0  0  0
    0.5242   -1.4289    0.0000 C   0  0  0  0  0  0  0  2  0  0  0  0
    0.9367   -0.7145    0.0000 S   0  0  0  0  0  0  0  2  0  0  0  0
    0.5242   -0.0000    0.0000 C   0  0  0  0  0  0  0  2  0  0  0  0
   -0.3008   -0.0000    0.0000 N   0  0  0  0  0  0  0  2  0  0  0  0
   -0.7857    0.6674    0.0000 C   0  0  0  0  0  0  0  2  0  0  0  0
   -0.5307    1.4521    0.0000 O   0  0  0  0  0  0  0  2  0  0  0  0
   -1.5703    0.4125    0.0000 C   0  0  0  0  0  0  0  2  0  0  0  0
   -2.2848    0.8250    0.0000 C   0  0  0  0  0  0  0  2  0  0  0  0
   -2.9992    0.4125    0.0000 C   0  0  0  0  0  0  0  2  0  0  0  0
   -2.9992   -0.4125    0.0000 C   0  0  0  0  0  0  0  2  0  0  0  0
   -2.2848   -0.8250    0.0000 C   0  0  0  0  0  0  0  2  0  0  0  0
   -1.5703   -0.4125    0.0000 C   0  0  0  0  0  0  0  2  0  0  0  0
   -0.7857   -0.6674    0.0000 C   0  0  0  0  0  0  0  2  0  0  0  0
   -0.5307   -1.4521    0.0000 O   0  0  0  0  0  0  0  2  0  0  0  0
  1  2  1  0        0
  2  3  1  0        0
  3  4  2  0        0
  3  5  1  0        0
  5  6  1  0        0
  3  7  1  0        0
  7  8  1  0        0
  8  9  1  0        0
  9 10  1  0        0
 10 11  2  0        0
 10 12  1  0        0
 12 13  4  0        0
 13 14  4  0        0
 14 15  4  0        0
 15 16  4  0        0
 16 17  4  0        0
 12 17  4  0        0
 17 18  1  0        0
  9 18  1  0        0
 18 19  2  0        0
M  END
>  <CAS RN>
732116

>  <SMILES>
COP(=S)(OC)SCN1C(=O)c2ccccc2C1=O

>  <Measured or Estimated Log10(mmol/L)>
-2.514428546

$$$$

CDXL12

 12 11  0  0  0  0  0  0  0  0999 V2000
    0.3572   -1.6500    0.0000 O   0  0  0  0  0  0  0  2  0  0  0  0
    0.3572   -0.8250    0.0000 C   0  0  0  0  0  0  0  2  0  0  0  0
   -0.3572   -0.4125    0.0000 N   0  0  0  0  0  0  0  2  0  0  0  0
   -1.0717   -0.8250    0.0000 C   0  0  0  0  0  0  0  2  0  0  0  0
   -1.7862   -0.4125    0.0000 C   0  0  0  0  0  0  0  2  0  0  0  0
   -2.5006   -0.8250    0.0000 C   0  0  0  0  0  0  0  2  0  0  0  0
   -0.3572    0.4125    0.0000 C   0  0  0  0  0  0  0  2  0  0  0  0
   -1.0717    0.8250    0.0000 C   0  0  0  0  0  0  0  2  0  0  0  0
   -1.0717    1.6500    0.0000 C   0  0  0  0  0  0  0  2  0  0  0  0
    1.0717   -0.4125    0.0000 S   0  0  0  0  0  0  0  2  0  0  0  0
    1.7862   -0.8250    0.0000 C   0  0  0  0  0  0  0  2  0  0  0  0
    2.5006   -0.4125    0.0000 C   0  0  0  0  0  0  0  2  0  0  0  0
  1  2  2  0        0
  2  3  1  0        0
  3  4  1  0        0
  4  5  1  0        0
  5  6  1  0        0
  3  7  1  0        0
  7  8  1  0        0
  8  9  1  0        0
  2 10  1  0        0
 10 11  1  0        0
 11 12  1  0        0
M  END
>  <CAS RN>
759944

>  <SMILES>
O=C(N(CCC)CCC)SCC

>  <Measured or Estimated Log10(mmol/L)>
-1.605100932

$$$$

CDXL12

  9  9  0  0  0  0  0  0  0  0999 V2000
   -1.7862   -1.0312    0.0000 N   0  0  0  0  0  0  0  2  0  0  0  0
   -1.0717   -0.6187    0.0000 C   0  0  0  0  0  0  0  2  0  0  0  0
   -0.3572   -0.2062    0.0000 C   0  0  0  0  0  0  0  2  0  0  0  0
   -0.3572    0.6188    0.0000 C   0  0  0  0  0  0  0  2  0  0  0  0
    0.3572    1.0312    0.0000 C   0  0  0  0  0  0  0  2  0  0  0  0
    1.0717    0.6188    0.0000 C   0  0  0  0  0  0  0  2  0  0  0  0
    1.7862    1.0312    0.0000 O   0  0  0  0  0  0  0  2  0  0  0  0
    1.0717   -0.2062    0.0000 C   0  0  0  0  0  0  0  2  0  0  0  0
    0.3572   -0.6187    0.0000 C   0  0  0  0  0  0  0  2  0  0  0  0
  1  2  3  0        0
  2  3  1  0        0
  3  4  4  0        0
  4  5  4  0        0
  5  6  4  0        0
  6  7  1  0        0
  6  8  4  0        0
  8  9  4  0        0
  3  9  4  0        0
M  END
>  <CAS RN>
767000

>  <SMILES>
N#Cc1ccc(O)cc1

>  <Measured or Estimated Log10(mmol/L)>
-0.899904352

$$$$

CDXL12

  9  9  0  0  0  0  0  0  0  0999 V2000
    1.4289    1.2375    0.0000 C   0  0  0  0  0  0  0  2  0  0  0  0
    0.7145    0.8250    0.0000 C   0  0  0  0  0  0  0  2  0  0  0  0
    0.7145   -0.0000    0.0000 C   0  0  0  0  0  0  0  2  0  0  0  0
    0.0000   -0.4125    0.0000 C   0  0  0  0  0  0  0  2  0  0  0  0
    0.0000   -1.2375    0.0000 C   0  0  0  0  0  0  0  2  0  0  0  0
   -0.7145   -0.0000    0.0000 N   0  0  0  0  0  0  0  2  0  0  0  0
   -0.7145    0.8250    0.0000 C   0  0  0  0  0  0  0  2  0  0  0  0
   -1.4289    1.2375    0.0000 N   0  0  0  0  0  0  0  2  0  0  0  0
    0.0000    1.2375    0.0000 N   0  0  0  0  0  0  0  2  0  0  0  0
  1  2  1  0        0
  2  3  4  0        0
  3  4  4  0        0
  4  5  1  0        0
  4  6  4  0        0
  6  7  4  0        0
  7  8  1  0        0
  7  9  4  0        0
  2  9  4  0        0
M  END
>  <CAS RN>
767157

>  <SMILES>
Cc1cc(C)nc(N)n1

>  <Measured or Estimated Log10(mmol/L)>
-1.131424755

$$$$

CDXL12

 18 18  0  0  0  0  0  0  0  0999 V2000
   -3.5724   -0.0000    0.0000 C   0  0  0  0  0  0  0  2  0  0  0  0
   -2.8579    0.4125    0.0000 C   0  0  0  0  0  0  0  2  0  0  0  0
   -2.1434   -0.0000    0.0000 O   0  0  0  0  0  0  0  2  0  0  0  0
   -1.4289    0.4125    0.0000 P   0  0  0  0  0  0  0  2  0  0  0  0
   -1.4289    1.2375    0.0000 S   0  0  0  0  0  0  0  2  0  0  0  0
   -1.4289   -0.4125    0.0000 O   0  0  0  0  0  0  0  2  0  0  0  0
   -2.1434   -0.8250    0.0000 C   0  0  0  0  0  0  0  2  0  0  0  0
   -2.1434   -1.6500    0.0000 C   0  0  0  0  0  0  0  2  0  0  0  0
   -0.7145   -0.0000    0.0000 S   0  0  0  0  0  0  0  2  0  0  0  0
   -0.0000    0.4125    0.0000 C   0  0  0  0  0  0  0  2  0  0  0  0
    0.7145   -0.0000    0.0000 S   0  0  0  0  0  0  0  2  0  0  0  0
    1.4289    0.4125    0.0000 C   0  0  0  0  0  0  0  2  0  0  0  0
    1.4289    1.2375    0.0000 C   0  0  0  0  0  0  0  2  0  0  0  0
    2.1434    1.6500    0.0000 C   0  0  0  0  0  0  0  2  0  0  0  0
    2.8579    1.2375    0.0000 C   0  0  0  0  0  0  0  2  0  0  0  0
    3.5724    1.6500    0.0000 Cl  0  0  0  0  0  0  0  2  0  0  0  0
    2.8579    0.4125    0.0000 C   0  0  0  0  0  0  0  2  0  0  0  0
    2.1434   -0.0000    0.0000 C   0  0  0  0  0  0  0  2  0  0  0  0
  1  2  1  0        0
  2  3  1  0        0
  3  4  1  0        0
  4  5  2  0        0
  4  6  1  0        0
  6  7  1  0        0
  7  8  1  0        0
  4  9  1  0        0
  9 10  1  0        0
 10 11  1  0        0
 11 12  1  0        0
 12 13  4  0        0
 13 14  4  0        0
 14 15  4  0        0
 15 16  1  0        0
 15 17  4  0        0
 17 18  4  0        0
 12 18  4  0        0
M  END
>  <CAS RN>
786196

>  <SMILES>
CCOP(=S)(OCC)SCSc1ccc(Cl)cc1

>  <Measured or Estimated Log10(mmol/L)>
-3.438214408

$$$$

CDXL12

  8  7  0  0  0  0  0  0  0  0999 V2000
    0.7145    1.0313    0.0000 O   0  0  0  0  0  0  0  2  0  0  0  0
    0.7145    0.2062    0.0000 C   0  0  0  0  0  0  0  2  0  0  0  0
    1.4289   -0.2062    0.0000 C   0  0  0  0  0  0  0  2  0  0  0  0
    0.0000   -0.2062    0.0000 C   0  0  0  0  0  0  0  2  0  0  0  0
    0.0000   -1.0313    0.0000 C   0  0  0  0  0  0  0  2  0  0  0  0
   -0.7145    0.2062    0.0000 C   0  0  0  0  0  0  0  2  0  0  0  0
   -0.7145    1.0313    0.0000 O   0  0  0  0  0  0  0  2  0  0  0  0
   -1.4289   -0.2062    0.0000 C   0  0  0  0  0  0  0  2  0  0  0  0
  1  2  2  0        0
  2  3  1  0        0
  2  4  1  0        0
  4  5  1  0        0
  4  6  1  0        0
  6  7  2  0        0
  6  8  1  0        0
M  END
>  <CAS RN>
815576

>  <SMILES>
O=C(C)C(C)C(=O)C

>  <Measured or Estimated Log10(mmol/L)>
1.79

$$$$

CDXL12

 10  9  0  0  0  0  0  0  0  0999 V2000
    2.8579   -0.2062    0.0000 C   0  0  0  0  0  0  0  2  0  0  0  0
    2.1434   -0.6188    0.0000 C   0  0  0  0  0  0  0  2  0  0  0  0
    1.4289   -0.2062    0.0000 C   0  0  0  0  0  0  0  2  0  0  0  0
    0.7145   -0.6188    0.0000 C   0  0  0  0  0  0  0  2  0  0  0  0
    0.0000   -0.2062    0.0000 Sn  0  0  0  0  0  0  0  2  0  0  0  0
    0.0000    0.6188    0.0000 O   0  0  0  0  0  0  0  2  0  0  0  0
   -0.7145   -0.6187    0.0000 C   0  0  0  0  0  0  0  2  0  0  0  0
   -1.4289   -0.2062    0.0000 C   0  0  0  0  0  0  0  2  0  0  0  0
   -2.1434   -0.6187    0.0000 C   0  0  0  0  0  0  0  2  0  0  0  0
   -2.8579   -0.2062    0.0000 C   0  0  0  0  0  0  0  2  0  0  0  0
  1  2  1  0        0
  2  3  1  0        0
  3  4  1  0        0
  4  5  1  0        0
  5  6  2  0        0
  5  7  1  0        0
  7  8  1  0        0
  8  9  1  0        0
  9 10  1  0        0
M  END
>  <CAS RN>
818086

>  <SMILES>
CCCC[Sn](=O)CCCC

>  <Measured or Estimated Log10(mmol/L)>
-4.356237004

$$$$

CDXL12

 10 10  0  0  0  0  0  0  0  0999 V2000
   -0.7145   -0.4125    0.0000 C   0  0  0  0  0  0  0  2  0  0  0  0
    0.0000   -0.8250    0.0000 C   0  0  0  0  0  0  0  2  0  0  0  0
    0.7145   -0.4125    0.0000 C   0  0  0  0  0  0  0  2  0  0  0  0
    1.4289   -0.8250    0.0000 C   0  0  0  0  0  0  0  2  0  0  0  0
    2.1434   -0.4125    0.0000 Cl  0  0  0  0  0  0  0  2  0  0  0  0
    0.7145    0.4125    0.0000 C   0  0  0  0  0  0  0  2  0  0  0  0
    0.0000    0.8250    0.0000 C   0  0  0  0  0  0  0  2  0  0  0  0
   -0.7145    0.4125    0.0000 C   0  0  0  0  0  0  0  2  0  0  0  0
   -1.4289   -0.8250    0.0000 O   0  0  0  0  0  0  0  2  0  0  0  0
   -2.1434   -0.4125    0.0000 C   0  0  0  0  0  0  0  2  0  0  0  0
  1  2  4  0        0
  2  3  4  0        0
  3  4  1  0        0
  4  5  1  0        0
  3  6  4  0        0
  6  7  4  0        0
  7  8  4  0        0
  1  8  4  0        0
  1  9  1  0        0
  9 10  1  0        0
M  END
>  <CAS RN>
824986

>  <SMILES>
c1(cc(CCl)ccc1)OC

>  <Measured or Estimated Log10(mmol/L)>
-1.554343588

$$$$

CDXL12

 11 12  0  0  0  0  0  0  0  0999 V2000
   -1.4133    0.0878    0.0000 C   0  0  0  0  0  0  0  2  0  0  0  0
   -1.4133   -0.7372    0.0000 C   0  0  0  0  0  0  0  2  0  0  0  0
   -0.6989   -1.1497    0.0000 C   0  0  0  0  0  0  0  2  0  0  0  0
    0.0156   -0.7372    0.0000 C   0  0  0  0  0  0  0  2  0  0  0  0
    0.8002   -0.9921    0.0000 C   0  0  0  0  0  0  0  2  0  0  0  0
    1.2852   -0.3247    0.0000 C   0  0  0  0  0  0  0  2  0  0  0  0
    0.8002    0.3427    0.0000 S   0  0  0  0  0  0  0  2  0  0  0  0
    1.4133    0.8948    0.0000 O   0  0  0  0  0  0  0  2  0  0  0  0
    0.6287    1.1497    0.0000 O   0  0  0  0  0  0  0  2  0  0  0  0
    0.0156    0.0878    0.0000 C   0  0  0  0  0  0  0  2  0  0  0  0
   -0.6989    0.5003    0.0000 C   0  0  0  0  0  0  0  2  0  0  0  0
  1  2  4  0        0
  2  3  4  0        0
  3  4  4  0        0
  4  5  1  0        0
  5  6  2  0        0
  6  7  1  0        0
  7  8  2  0        0
  7  9  2  0        0
  7 10  1  0        0
  4 10  4  0        0
 10 11  4  0        0
  1 11  4  0        0
M  END
>  <CAS RN>
825445

>  <SMILES>
c1ccc2\C=C/S(=O)(=O)c2c1

>  <Measured or Estimated Log10(mmol/L)>
-1.074497758

$$$$

CDXL12

 11 11  0  0  0  0  0  0  0  0999 V2000
    1.4842   -0.2467    0.0000 O   0  0  0  0  0  0  0  2  0  0  0  0
    1.0717    0.4678    0.0000 S   0  0  0  0  0  0  0  2  0  0  0  0
    0.6592    1.1822    0.0000 O   0  0  0  0  0  0  0  2  0  0  0  0
    1.7862    0.8803    0.0000 O   0  0  0  0  0  0  0  2  0  0  0  0
    0.3572    0.0553    0.0000 C   0  0  0  0  0  0  0  2  0  0  0  0
    0.3572   -0.7697    0.0000 C   0  0  0  0  0  0  0  2  0  0  0  0
   -0.3572   -1.1822    0.0000 C   0  0  0  0  0  0  0  2  0  0  0  0
   -1.0717   -0.7697    0.0000 C   0  0  0  0  0  0  0  2  0  0  0  0
   -1.7862   -1.1822    0.0000 O   0  0  0  0  0  0  0  2  0  0  0  0
   -1.0717    0.0553    0.0000 C   0  0  0  0  0  0  0  2  0  0  0  0
   -0.3572    0.4678    0.0000 C   0  0  0  0  0  0  0  2  0  0  0  0
  1  2  2  0        0
  2  3  2  0        0
  2  4  1  0        0
  2  5  1  0        0
  5  6  4  0        0
  6  7  4  0        0
  7  8  4  0        0
  8  9  1  0        0
  8 10  4  0        0
 10 11  4  0        0
  5 11  4  0        0
M  END
>  <CAS RN>
825901

>  <SMILES>
O=S(=O)(O)c1ccc(O)cc1

>  <Measured or Estimated Log10(mmol/L)>
1.889672023

$$$$

CDXL12

  7  6  0  0  0  0  0  0  0  0999 V2000
    0.4125    0.5635    0.0000 Cl  0  0  0  0  0  0  0  2  0  0  0  0
    0.0000   -0.1510    0.0000 Sn  0  0  0  0  0  0  0  2  0  0  0  0
   -0.4125    0.5635    0.0000 Cl  0  0  0  0  0  0  0  2  0  0  0  0
    0.7145   -0.5635    0.0000 C   0  0  0  0  0  0  0  2  0  0  0  0
    1.4289   -0.1510    0.0000 C   0  0  0  0  0  0  0  2  0  0  0  0
   -0.7145   -0.5635    0.0000 C   0  0  0  0  0  0  0  2  0  0  0  0
   -1.4289   -0.1510    0.0000 C   0  0  0  0  0  0  0  2  0  0  0  0
  1  2  1  0        0
  2  3  1  0        0
  2  4  1  0        0
  4  5  1  0        0
  2  6  1  0        0
  6  7  1  0        0
M  END
>  <CAS RN>
866557

>  <SMILES>
Cl[Sn](Cl)(CC)CC

>  <Measured or Estimated Log10(mmol/L)>
-2.163359635

$$$$

CDXL12

 12 13  0  0  0  0  0  0  0  0999 V2000
   -2.1434   -0.8250    0.0000 C   0  0  0  0  0  0  0  2  0  0  0  0
   -1.4289   -0.4125    0.0000 C   0  0  0  0  0  0  0  2  0  0  0  0
   -1.4289    0.4125    0.0000 C   0  0  0  0  0  0  0  2  0  0  0  0
   -0.7145    0.8250    0.0000 C   0  0  0  0  0  0  0  2  0  0  0  0
    0.0000    0.4125    0.0000 C   0  0  0  0  0  0  0  2  0  0  0  0
    0.7145    0.8250    0.0000 N   0  0  0  0  0  0  0  2  0  0  0  0
    1.4289    0.4125    0.0000 C   0  0  0  0  0  0  0  2  0  0  0  0
    2.1434    0.8250    0.0000 C   0  0  0  0  0  0  0  2  0  0  0  0
    1.4289   -0.4125    0.0000 C   0  0  0  0  0  0  0  2  0  0  0  0
    0.7145   -0.8250    0.0000 C   0  0  0  0  0  0  0  2  0  0  0  0
    0.0000   -0.4125    0.0000 C   0  0  0  0  0  0  0  2  0  0  0  0
   -0.7145   -0.8250    0.0000 C   0  0  0  0  0  0  0  2  0  0  0  0
  1  2  1  0        0
  2  3  4  0        0
  3  4  4  0        0
  4  5  4  0        0
  5  6  4  0        0
  6  7  4  0        0
  7  8  1  0        0
  7  9  4  0        0
  9 10  4  0        0
 10 11  4  0        0
  5 11  4  0        0
 11 12  4  0        0
  2 12  4  0        0
M  END
>  <CAS RN>
877430

>  <SMILES>
Cc1ccc2nc(C)ccc2c1

>  <Measured or Estimated Log10(mmol/L)>
-0.616713146

$$$$

CDXL12

 23 25  0  0  0  0  0  0  0  0999 V2000
   -2.5162    0.7145    0.0000 C   0  0  0  0  0  0  0  2  0  0  0  0
   -1.6912    0.7145    0.0000 C   0  0  0  0  0  0  0  2  0  0  0  0
   -1.2788    1.4289    0.0000 O   0  0  0  0  0  0  0  2  0  0  0  0
   -1.2788   -0.0000    0.0000 O   0  0  0  0  0  0  0  2  0  0  0  0
    0.0412   -0.0000    0.0000 Sn  0  0  0  0  0  0  0  2  0  0  0  0
    0.8662   -0.0000    0.0000 C   0  0  0  0  0  0  0  2  0  0  0  0
    1.2787    0.7145    0.0000 C   0  0  0  0  0  0  0  2  0  0  0  0
    2.1037    0.7145    0.0000 C   0  0  0  0  0  0  0  2  0  0  0  0
    2.5162   -0.0000    0.0000 C   0  0  0  0  0  0  0  2  0  0  0  0
    2.1037   -0.7145    0.0000 C   0  0  0  0  0  0  0  2  0  0  0  0
    1.2787   -0.7145    0.0000 C   0  0  0  0  0  0  0  2  0  0  0  0
    0.0412    0.8250    0.0000 C   0  0  0  0  0  0  0  2  0  0  0  0
   -0.6732    1.2375    0.0000 C   0  0  0  0  0  0  0  2  0  0  0  0
   -0.6732    2.0625    0.0000 C   0  0  0  0  0  0  0  2  0  0  0  0
    0.0413    2.4750    0.0000 C   0  0  0  0  0  0  0  2  0  0  0  0
    0.7557    2.0625    0.0000 C   0  0  0  0  0  0  0  2  0  0  0  0
    0.7557    1.2375    0.0000 C   0  0  0  0  0  0  0  2  0  0  0  0
    0.0412   -0.8250    0.0000 C   0  0  0  0  0  0  0  2  0  0  0  0
    0.7557   -1.2375    0.0000 C   0  0  0  0  0  0  0  2  0  0  0  0
    0.7557   -2.0625    0.0000 C   0  0  0  0  0  0  0  2  0  0  0  0
    0.0412   -2.4750    0.0000 C   0  0  0  0  0  0  0  2  0  0  0  0
   -0.6732   -2.0625    0.0000 C   0  0  0  0  0  0  0  2  0  0  0  0
   -0.6732   -1.2375    0.0000 C   0  0  0  0  0  0  0  2  0  0  0  0
  1  2  1  0        0
  2  3  2  0        0
  2  4  1  0        0
  4  5  1  0        0
  5  6  1  0        0
  6  7  4  0        0
  7  8  4  0        0
  8  9  4  0        0
  9 10  4  0        0
 10 11  4  0        0
  6 11  4  0        0
  5 12  1  0        0
 12 13  4  0        0
 13 14  4  0        0
 14 15  4  0        0
 15 16  4  0        0
 16 17  4  0        0
 12 17  4  0        0
  5 18  1  0        0
 18 19  4  0        0
 19 20  4  0        0
 20 21  4  0        0
 21 22  4  0        0
 22 23  4  0        0
 18 23  4  0        0
M  END
>  <CAS RN>
900958

>  <SMILES>
CC(=O)O[Sn](c1ccccc1)(c1ccccc1)c1ccccc1

>  <Measured or Estimated Log10(mmol/L)>
-3.526595012

$$$$

CDXL12

 12 11  0  0  0  0  0  0  0  0999 V2000
    1.4289    1.0313    0.0000 O   0  0  0  0  0  0  0  2  0  0  0  0
    1.4289    0.2062    0.0000 P   0  0  0  0  0  0  0  2  0  0  0  0
    2.1434   -0.2062    0.0000 O   0  0  0  0  0  0  0  2  0  0  0  0
    2.8579    0.2062    0.0000 C   0  0  0  0  0  0  0  2  0  0  0  0
    1.4289   -0.6188    0.0000 O   0  0  0  0  0  0  0  2  0  0  0  0
    2.1434   -1.0313    0.0000 C   0  0  0  0  0  0  0  2  0  0  0  0
    0.7145   -0.2062    0.0000 S   0  0  0  0  0  0  0  2  0  0  0  0
    0.0000    0.2062    0.0000 C   0  0  0  0  0  0  0  2  0  0  0  0
   -0.7145   -0.2062    0.0000 C   0  0  0  0  0  0  0  2  0  0  0  0
   -1.4289    0.2062    0.0000 S   0  0  0  0  0  0  0  2  0  0  0  0
   -2.1434   -0.2062    0.0000 C   0  0  0  0  0  0  0  2  0  0  0  0
   -2.8579    0.2062    0.0000 C   0  0  0  0  0  0  0  2  0  0  0  0
  1  2  2  0        0
  2  3  1  0        0
  3  4  1  0        0
  2  5  1  0        0
  5  6  1  0        0
  2  7  1  0        0
  7  8  1  0        0
  8  9  1  0        0
  9 10  1  0        0
 10 11  1  0        0
 11 12  1  0        0
M  END
>  <CAS RN>
919868

>  <SMILES>
O=P(OC)(OC)SCCSCC

>  <Measured or Estimated Log10(mmol/L)>
-3.4868348

$$$$

CDXL12

 10 10  0  0  0  0  0  0  0  0999 V2000
    0.0000   -1.2375    0.0000 O   0  0  0  0  0  0  0  2  0  0  0  0
    0.0000   -0.4125    0.0000 C   0  0  0  0  0  0  0  2  0  0  0  0
   -0.7145   -0.0000    0.0000 C   0  0  0  0  0  0  0  2  0  0  0  0
   -0.7145    0.8250    0.0000 C   0  0  0  0  0  0  0  2  0  0  0  0
    0.0000    1.2375    0.0000 C   0  0  0  0  0  0  0  2  0  0  0  0
    0.7145    0.8250    0.0000 C   0  0  0  0  0  0  0  2  0  0  0  0
    1.4289    1.2375    0.0000 Cl  0  0  0  0  0  0  0  2  0  0  0  0
    0.7145   -0.0000    0.0000 C   0  0  0  0  0  0  0  2  0  0  0  0
    1.4289   -0.4125    0.0000 Cl  0  0  0  0  0  0  0  2  0  0  0  0
   -1.4289   -0.4125    0.0000 Cl  0  0  0  0  0  0  0  2  0  0  0  0
  1  2  1  0        0
  2  3  4  0        0
  3  4  4  0        0
  4  5  4  0        0
  5  6  4  0        0
  6  7  1  0        0
  6  8  4  0        0
  2  8  4  0        0
  8  9  1  0        0
  3 10  1  0        0
M  END
>  <CAS RN>
933755

>  <SMILES>
Oc1c(ccc(Cl)c1Cl)Cl

>  <Measured or Estimated Log10(mmol/L)>
-1.432129868

$$$$

CDXL12

 10 10  0  0  0  0  0  0  0  0999 V2000
    1.4289   -1.2375    0.0000 O   0  0  0  0  0  0  0  2  0  0  0  0
    0.7145   -0.8250    0.0000 C   0  0  0  0  0  0  0  2  0  0  0  0
    0.0000   -1.2375    0.0000 C   0  0  0  0  0  0  0  2  0  0  0  0
   -0.7145   -0.8250    0.0000 C   0  0  0  0  0  0  0  2  0  0  0  0
   -1.4289   -1.2375    0.0000 Cl  0  0  0  0  0  0  0  2  0  0  0  0
   -0.7145    0.0000    0.0000 C   0  0  0  0  0  0  0  2  0  0  0  0
    0.0000    0.4125    0.0000 C   0  0  0  0  0  0  0  2  0  0  0  0
    0.0000    1.2375    0.0000 Cl  0  0  0  0  0  0  0  2  0  0  0  0
    0.7145    0.0000    0.0000 C   0  0  0  0  0  0  0  2  0  0  0  0
    1.4289    0.4125    0.0000 Cl  0  0  0  0  0  0  0  2  0  0  0  0
  1  2  1  0        0
  2  3  4  0        0
  3  4  4  0        0
  4  5  1  0        0
  4  6  4  0        0
  6  7  4  0        0
  7  8  1  0        0
  7  9  4  0        0
  2  9  4  0        0
  9 10  1  0        0
M  END
>  <CAS RN>
933788

>  <SMILES>
Oc1cc(Cl)cc(Cl)c1Cl

>  <Measured or Estimated Log10(mmol/L)>
-1.94

$$$$

CDXL12

 11 11  0  0  0  0  0  0  0  0999 V2000
    1.4289    0.4125    0.0000 Cl  0  0  0  0  0  0  0  2  0  0  0  0
    0.7145    0.0000    0.0000 C   0  0  0  0  0  0  0  2  0  0  0  0
    0.7145   -0.8250    0.0000 C   0  0  0  0  0  0  0  2  0  0  0  0
    1.4289   -1.2375    0.0000 Cl  0  0  0  0  0  0  0  2  0  0  0  0
    0.0000   -1.2375    0.0000 C   0  0  0  0  0  0  0  2  0  0  0  0
   -0.7145   -0.8250    0.0000 C   0  0  0  0  0  0  0  2  0  0  0  0
   -1.4289   -1.2375    0.0000 Cl  0  0  0  0  0  0  0  2  0  0  0  0
   -0.7145    0.0000    0.0000 C   0  0  0  0  0  0  0  2  0  0  0  0
   -1.4289    0.4125    0.0000 Cl  0  0  0  0  0  0  0  2  0  0  0  0
    0.0000    0.4125    0.0000 C   0  0  0  0  0  0  0  2  0  0  0  0
    0.0000    1.2375    0.0000 O   0  0  0  0  0  0  0  2  0  0  0  0
  1  2  1  0        0
  2  3  4  0        0
  3  4  1  0        0
  3  5  4  0        0
  5  6  4  0        0
  6  7  1  0        0
  6  8  4  0        0
  8  9  1  0        0
  8 10  4  0        0
  2 10  4  0        0
 10 11  1  0        0
M  END
>  <CAS RN>
935955

>  <SMILES>
Clc1c(Cl)cc(Cl)c(Cl)c1O

>  <Measured or Estimated Log10(mmol/L)>
-2.609412783

$$$$

CDXL12

  5  4  0  0  0  0  0  0  0  0999 V2000
   -0.8250   -0.0000    0.0000 Cl  0  0  0  0  0  0  0  2  0  0  0  0
    0.0000   -0.0000    0.0000 Sn  0  0  0  0  0  0  0  2  0  0  0  0
    0.0000   -0.8250    0.0000 Cl  0  0  0  0  0  0  0  2  0  0  0  0
    0.8250   -0.0000    0.0000 Cl  0  0  0  0  0  0  0  2  0  0  0  0
    0.0000    0.8250    0.0000 C   0  0  0  0  0  0  0  2  0  0  0  0
  1  2  1  0        0
  2  3  1  0        0
  2  4  1  0        0
  2  5  1  0        0
M  END
>  <CAS RN>
993168

>  <SMILES>
Cl[Sn](Cl)(Cl)C

>  <Measured or Estimated Log10(mmol/L)>
-0.7406133

$$$$

CDXL12

  7  6  0  0  0  0  0  0  0  0999 V2000
    1.4289   -0.1510    0.0000 C   0  0  0  0  0  0  0  2  0  0  0  0
    0.7145   -0.5635    0.0000 O   0  0  0  0  0  0  0  2  0  0  0  0
    0.0000   -0.1510    0.0000 C   0  0  0  0  0  0  0  2  0  0  0  0
   -0.4125    0.5635    0.0000 C   0  0  0  0  0  0  0  2  0  0  0  0
    0.4125    0.5635    0.0000 C   0  0  0  0  0  0  0  2  0  0  0  0
   -0.7145   -0.5635    0.0000 C   0  0  0  0  0  0  0  2  0  0  0  0
   -1.4289   -0.1510    0.0000 C   0  0  0  0  0  0  0  2  0  0  0  0
  1  2  1  0        0
  2  3  1  0        0
  3  4  1  0        0
  3  5  1  0        0
  3  6  1  0        0
  6  7  1  0        0
M  END
>  <CAS RN>
994058

>  <SMILES>
COC(C)(C)CC

>  <Measured or Estimated Log10(mmol/L)>
-0.01

$$$$

CDXL12

 12 13  0  0  0  0  0  0  0  0999 V2000
   -1.7862   -0.4125    0.0000 C   0  0  0  0  0  0  0  2  0  0  0  0
   -1.7862    0.4125    0.0000 C   0  0  0  0  0  0  0  2  0  0  0  0
   -1.0717    0.8250    0.0000 C   0  0  0  0  0  0  0  2  0  0  0  0
   -0.3572    0.4125    0.0000 C   0  0  0  0  0  0  0  2  0  0  0  0
    0.3572    0.8250    0.0000 C   0  0  0  0  0  0  0  2  0  0  0  0
    1.0717    0.4125    0.0000 C   0  0  0  0  0  0  0  2  0  0  0  0
    1.7862    0.8250    0.0000 C   0  0  0  0  0  0  0  2  0  0  0  0
    1.0717   -0.4125    0.0000 C   0  0  0  0  0  0  0  2  0  0  0  0
    0.3572   -0.8250    0.0000 C   0  0  0  0  0  0  0  2  0  0  0  0
   -0.3572   -0.4125    0.0000 C   0  0  0  0  0  0  0  2  0  0  0  0
   -1.0717   -0.8250    0.0000 C   0  0  0  0  0  0  0  2  0  0  0  0
    1.7862   -0.8250    0.0000 C   0  0  0  0  0  0  0  2  0  0  0  0
  1  2  1  0        0
  2  3  1  0        0
  3  4  1  0        0
  4  5  1  0        0
  5  6  1  0        0
  6  7  1  0        0
  6  8  1  0        0
  8  9  1  0        0
  9 10  1  0        0
  4 10  1  0        0
 10 11  1  0        0
  1 11  1  0        0
  8 12  1  0        0
M  END
>  <CAS RN>
1008806

>  <SMILES>
C1CCC2CC(C)C(CC2C1)C

>  <Measured or Estimated Log10(mmol/L)>
-3.62

$$$$

CDXL12

 14 16  0  0  0  0  0  0  0  0999 V2000
    0.0000    0.5288    0.0000 S   0  0  0  0  0  0  0  2  0  0  0  0
    0.0000    1.3538    0.0000 O   0  0  0  0  0  0  0  2  0  0  0  0
    0.6674    0.0439    0.0000 C   0  0  0  0  0  0  0  2  0  0  0  0
    1.4744    0.2154    0.0000 C   0  0  0  0  0  0  0  2  0  0  0  0
    2.0264   -0.3977    0.0000 C   0  0  0  0  0  0  0  2  0  0  0  0
    1.7715   -1.1823    0.0000 C   0  0  0  0  0  0  0  2  0  0  0  0
    0.9645   -1.3538    0.0000 C   0  0  0  0  0  0  0  2  0  0  0  0
    0.4125   -0.7407    0.0000 C   0  0  0  0  0  0  0  2  0  0  0  0
   -0.4125   -0.7407    0.0000 C   0  0  0  0  0  0  0  2  0  0  0  0
   -0.6674    0.0439    0.0000 C   0  0  0  0  0  0  0  2  0  0  0  0
   -1.4744    0.2154    0.0000 C   0  0  0  0  0  0  0  2  0  0  0  0
   -2.0264   -0.3977    0.0000 C   0  0  0  0  0  0  0  2  0  0  0  0
   -1.7715   -1.1823    0.0000 C   0  0  0  0  0  0  0  2  0  0  0  0
   -0.9645   -1.3538    0.0000 C   0  0  0  0  0  0  0  2  0  0  0  0
  1  2  2  0        0
  1  3  4  0        0
  3  4  4  0        0
  4  5  4  0        0
  5  6  4  0        0
  6  7  4  0        0
  7  8  4  0        0
  3  8  4  0        0
  8  9  4  0        0
  9 10  4  0        0
  1 10  4  0        0
 10 11  4  0        0
 11 12  4  0        0
 12 13  4  0        0
 13 14  4  0        0
  9 14  4  0        0
M  END
>  <CAS RN>
1013236

>  <SMILES>
s1(=O)c2ccccc2c2c1cccc2

>  <Measured or Estimated Log10(mmol/L)>
-1.000562048

$$$$

CDXL12

 14 14  0  0  0  0  0  0  0  0999 V2000
    2.8579   -1.4438    0.0000 C   0  0  0  0  0  0  0  2  0  0  0  0
    2.1434   -1.0313    0.0000 C   0  0  0  0  0  0  0  2  0  0  0  0
    1.4289   -1.4438    0.0000 N   0  0  0  0  0  0  0  2  0  0  0  0
    0.7145   -1.0313    0.0000 C   0  0  0  0  0  0  0  2  0  0  0  0
    0.0000   -1.4438    0.0000 N   0  0  0  0  0  0  0  2  0  0  0  0
   -0.7145   -1.0313    0.0000 C   0  0  0  0  0  0  0  2  0  0  0  0
   -1.4289   -1.4438    0.0000 N   0  0  0  0  0  0  0  2  0  0  0  0
   -2.1434   -1.0313    0.0000 C   0  0  0  0  0  0  0  2  0  0  0  0
   -2.8579   -1.4438    0.0000 C   0  0  0  0  0  0  0  2  0  0  0  0
   -0.7145   -0.2062    0.0000 N   0  0  0  0  0  0  0  2  0  0  0  0
    0.0000    0.2062    0.0000 C   0  0  0  0  0  0  0  2  0  0  0  0
    0.0000    1.0313    0.0000 S   0  0  0  0  0  0  0  2  0  0  0  0
   -0.7145    1.4438    0.0000 C   0  0  0  0  0  0  0  2  0  0  0  0
    0.7145   -0.2062    0.0000 N   0  0  0  0  0  0  0  2  0  0  0  0
  1  2  1  0        0
  2  3  1  0        0
  3  4  1  0        0
  4  5  4  0        0
  5  6  4  0        0
  6  7  1  0        0
  7  8  1  0        0
  8  9  1  0        0
  6 10  4  0        0
 10 11  4  0        0
 11 12  1  0        0
 12 13  1  0        0
 11 14  4  0        0
  4 14  4  0        0
M  END
>  <CAS RN>
1014706

>  <SMILES>
CCNc1nc(NCC)nc(SC)n1

>  <Measured or Estimated Log10(mmol/L)>
-0.630035103

$$$$

CDXL12

 18 21  0  0  0  0  0  0  0  0999 V2000
    0.2692   -0.4125    0.0000 C   0  0  0  0  0  0  0  2  0  0  0  0
    0.2692    0.4125    0.0000 C   0  0  0  0  0  0  0  2  0  0  0  0
    1.0538    0.6674    0.0000 C   0  0  0  0  0  0  0  2  0  0  0  0
    1.5387   -0.0000    0.0000 C   0  0  0  0  0  0  0  2  0  0  0  0
    1.0538   -0.6674    0.0000 C   0  0  0  0  0  0  0  2  0  0  0  0
    1.8743   -0.7537    0.0000 O   0  0  0  0  0  0  0  2  0  0  0  0
    1.3087    1.4521    0.0000 Cl  0  0  0  0  0  0  0  2  0  0  0  0
   -0.4453    0.8250    0.0000 C   0  0  0  0  0  0  0  2  0  0  0  0
   -1.1598    0.4125    0.0000 C   0  0  0  0  0  0  0  2  0  0  0  0
   -1.1598   -0.4125    0.0000 C   0  0  0  0  0  0  0  2  0  0  0  0
   -0.4453   -0.8250    0.0000 C   0  0  0  0  0  0  0  2  0  0  0  0
   -0.7818    0.0000    0.0000 C   0  0  0  0  0  0  0  2  0  0  0  0
   -1.4963    0.4125    0.0000 Cl  0  0  0  0  0  0  0  2  0  0  0  0
   -1.4963   -0.4125    0.0000 Cl  0  0  0  0  0  0  0  2  0  0  0  0
   -0.4453   -1.6500    0.0000 Cl  0  0  0  0  0  0  0  2  0  0  0  0
   -1.8743   -0.8250    0.0000 Cl  0  0  0  0  0  0  0  2  0  0  0  0
   -1.8743    0.8250    0.0000 Cl  0  0  0  0  0  0  0  2  0  0  0  0
   -0.4453    1.6500    0.0000 Cl  0  0  0  0  0  0  0  2  0  0  0  0
  1  2  1  0        0
  2  3  1  0        0
  3  4  1  0        0
  4  5  1  0        0
  1  5  1  0        0
  5  6  1  0        0
  4  6  1  0        0
  3  7  1  0        0
  2  8  1  0        0
  8  9  1  0        0
  9 10  2  0        0
 10 11  1  0        0
  1 11  1  0        0
 11 12  1  0        0
  8 12  1  0        0
 12 13  1  0        0
 12 14  1  0        0
 11 15  1  0        0
 10 16  1  0        0
  9 17  1  0        0
  8 18  1  0        0
M  END
>  <CAS RN>
1024573

>  <SMILES>
C12C(C(C3C1O3)Cl)C1(/C(=C(\C2(C1(Cl)Cl)Cl)/Cl)/Cl)Cl

>  <Measured or Estimated Log10(mmol/L)>
-3.210095473

$$$$

CDXL12

  5  4  0  0  0  0  0  0  0  0999 V2000
   -0.8250   -0.0000    0.0000 C   0  0  0  0  0  0  0  2  0  0  0  0
    0.0000   -0.0000    0.0000 Sn  0  0  0  0  0  0  0  2  0  0  0  0
    0.0000   -0.8250    0.0000 C   0  0  0  0  0  0  0  2  0  0  0  0
    0.8250   -0.0000    0.0000 C   0  0  0  0  0  0  0  2  0  0  0  0
    0.0000    0.8250    0.0000 Cl  0  0  0  0  0  0  0  2  0  0  0  0
  1  2  1  0        0
  2  3  1  0        0
  2  4  1  0        0
  2  5  1  0        0
M  END
>  <CAS RN>
1066451

>  <SMILES>
C[Sn](C)(C)Cl

>  <Measured or Estimated Log10(mmol/L)>
-3.0204953

$$$$

CDXL12

 10  9  0  0  0  0  0  0  0  0999 V2000
   -2.1434   -0.4125    0.0000 O   0  0  0  0  0  0  0  2  0  0  0  0
   -1.4289   -0.0000    0.0000 C   0  0  0  0  0  0  0  2  0  0  0  0
   -1.4289    0.8250    0.0000 O   0  0  0  0  0  0  0  2  0  0  0  0
   -0.7145   -0.4125    0.0000 C   0  0  0  0  0  0  0  2  0  0  0  0
    0.0000   -0.0000    0.0000 N   0  0  0  0  0  0  0  2  0  0  0  0
    0.7145   -0.4125    0.0000 C   0  0  0  0  0  0  0  2  0  0  0  0
    1.4289    0.0000    0.0000 P   0  0  0  0  0  0  0  2  0  0  0  0
    1.4289   -0.8250    0.0000 O   0  0  0  0  0  0  0  2  0  0  0  0
    2.1434   -0.4125    0.0000 O   0  0  0  0  0  0  0  2  0  0  0  0
    1.4289    0.8250    0.0000 O   0  0  0  0  0  0  0  2  0  0  0  0
  1  2  1  0        0
  2  3  2  0        0
  2  4  1  0        0
  4  5  1  0        0
  5  6  1  0        0
  6  7  1  0        0
  7  8  1  0        0
  7  9  1  0        0
  7 10  2  0        0
M  END
>  <CAS RN>
1071836

>  <SMILES>
OC(=O)CNCP(O)(O)=O

>  <Measured or Estimated Log10(mmol/L)>
-0.346775085

$$$$

CDXL12

  8  7  0  0  0  0  0  0  0  0999 V2000
    1.7862    0.2062    0.0000 Cl  0  0  0  0  0  0  0  2  0  0  0  0
    1.0717   -0.2062    0.0000 Sn  0  0  0  0  0  0  0  2  0  0  0  0
    1.0717    0.6188    0.0000 Cl  0  0  0  0  0  0  0  2  0  0  0  0
    1.7862   -0.6188    0.0000 Cl  0  0  0  0  0  0  0  2  0  0  0  0
    0.3572   -0.6188    0.0000 C   0  0  0  0  0  0  0  2  0  0  0  0
   -0.3572   -0.2063    0.0000 C   0  0  0  0  0  0  0  2  0  0  0  0
   -1.0717   -0.6188    0.0000 C   0  0  0  0  0  0  0  2  0  0  0  0
   -1.7862   -0.2063    0.0000 C   0  0  0  0  0  0  0  2  0  0  0  0
  1  2  1  0        0
  2  3  1  0        0
  2  4  1  0        0
  2  5  1  0        0
  5  6  1  0        0
  6  7  1  0        0
  7  8  1  0        0
M  END
>  <CAS RN>
1118463

>  <SMILES>
Cl[Sn](Cl)(Cl)CCCC

>  <Measured or Estimated Log10(mmol/L)>
-1.0825956

$$$$

CDXL12

 19 18  0  0  0  0  0  0  0  0999 V2000
   -5.4087   -0.0399    0.0000 C   0  0  0  0  0  0  0  2  0  0  0  0
   -4.6942    0.3726    0.0000 C   0  0  0  0  0  0  0  2  0  0  0  0
   -3.9798   -0.0399    0.0000 C   0  0  0  0  0  0  0  2  0  0  0  0
   -3.2653    0.3726    0.0000 C   0  0  0  0  0  0  0  2  0  0  0  0
   -2.5508   -0.0399    0.0000 C   0  0  0  0  0  0  0  2  0  0  0  0
   -1.8364    0.3726    0.0000 C   0  0  0  0  0  0  0  2  0  0  0  0
   -1.1219   -0.0399    0.0000 C   0  0  0  0  0  0  0  2  0  0  0  0
   -0.4074    0.3726    0.0000 C   0  0  0  0  0  0  0  2  0  0  0  0
    0.3070   -0.0399    0.0000 C   0  0  0  0  0  0  0  2  0  0  0  0
    1.0215    0.3726    0.0000 C   0  0  0  0  0  0  0  2  0  0  0  0
    1.7360   -0.0399    0.0000 C   0  0  0  0  0  0  0  2  0  0  0  0
    2.4505    0.3726    0.0000 C   0  0  0  0  0  0  0  2  0  0  0  0
    3.1649   -0.0399    0.0000 C   0  0  0  0  0  0  0  2  0  0  0  0
    3.8794    0.3726    0.0000 C   0  0  0  0  0  0  0  2  0  0  0  0
    4.5939   -0.0399    0.0000 N   0  0  0  0  0  0  0  2  0  0  0  0
    4.0105   -0.6232    0.0000 C   0  0  0  0  0  0  0  2  0  0  0  0
    4.9684   -0.7750    0.0000 C   0  0  0  0  0  0  0  2  0  0  0  0
    5.4087    0.0892    0.0000 C   0  0  0  0  0  0  0  2  0  0  0  0
    4.7229    0.7750    0.0000 Br  0  0  0  0  0  0  0  2  0  0  0  0
  1  2  1  0        0
  2  3  1  0        0
  3  4  1  0        0
  4  5  1  0        0
  5  6  1  0        0
  6  7  1  0        0
  7  8  1  0        0
  8  9  1  0        0
  9 10  1  0        0
 10 11  1  0        0
 11 12  1  0        0
 12 13  1  0        0
 13 14  1  0        0
 14 15  1  0        0
 15 16  1  0        0
 15 17  1  0        0
 15 18  1  0        0
 15 19  1  0        0
M  END
>  <CAS RN>
1119977

>  <SMILES>
CCCCCCCCCCCCCCN(C)(C)(C)Br

>  <Measured or Estimated Log10(mmol/L)>
-3.798491538

$$$$

CDXL12

 11 11  0  0  0  0  0  0  0  0999 V2000
    0.3572   -0.8250    0.0000 O   0  0  0  0  0  0  0  2  0  0  0  0
    1.0717   -0.4125    0.0000 C   0  0  0  0  0  0  0  2  0  0  0  0
    1.0717    0.4125    0.0000 C   0  0  0  0  0  0  0  2  0  0  0  0
    1.7862    0.8250    0.0000 C   0  0  0  0  0  0  0  2  0  0  0  0
    2.5006    0.4125    0.0000 C   0  0  0  0  0  0  0  2  0  0  0  0
    2.5006   -0.4125    0.0000 C   0  0  0  0  0  0  0  2  0  0  0  0
    1.7862   -0.8250    0.0000 C   0  0  0  0  0  0  0  2  0  0  0  0
   -0.3572   -0.4125    0.0000 C   0  0  0  0  0  0  0  2  0  0  0  0
   -1.0717   -0.8250    0.0000 C   0  0  0  0  0  0  0  2  0  0  0  0
   -1.7862   -0.4125    0.0000 C   0  0  0  0  0  0  0  2  0  0  0  0
   -2.5006   -0.8250    0.0000 C   0  0  0  0  0  0  0  2  0  0  0  0
  1  2  1  0        0
  2  3  4  0        0
  3  4  4  0        0
  4  5  4  0        0
  5  6  4  0        0
  6  7  4  0        0
  2  7  4  0        0
  1  8  1  0        0
  8  9  1  0        0
  9 10  1  0        0
 10 11  1  0        0
M  END
>  <CAS RN>
1126790

>  <SMILES>
O(c1ccccc1)CCCC

>  <Measured or Estimated Log10(mmol/L)>
-2.2121735

$$$$

CDXL12

 15 16  0  0  0  0  0  0  0  0999 V2000
   -0.4125    1.1822    0.0000 Cl  0  0  0  0  0  0  0  2  0  0  0  0
    0.0000    0.4678    0.0000 Sn  0  0  0  0  0  0  0  2  0  0  0  0
   -0.7145    0.0553    0.0000 C   0  0  0  0  0  0  0  2  0  0  0  0
   -0.7145   -0.7697    0.0000 C   0  0  0  0  0  0  0  2  0  0  0  0
   -1.4289   -1.1822    0.0000 C   0  0  0  0  0  0  0  2  0  0  0  0
   -2.1434   -0.7697    0.0000 C   0  0  0  0  0  0  0  2  0  0  0  0
   -2.1434    0.0553    0.0000 C   0  0  0  0  0  0  0  2  0  0  0  0
   -1.4289    0.4678    0.0000 C   0  0  0  0  0  0  0  2  0  0  0  0
    0.4125    1.1822    0.0000 Cl  0  0  0  0  0  0  0  2  0  0  0  0
    0.7145    0.0553    0.0000 C   0  0  0  0  0  0  0  2  0  0  0  0
    1.4289    0.4678    0.0000 C   0  0  0  0  0  0  0  2  0  0  0  0
    2.1434    0.0553    0.0000 C   0  0  0  0  0  0  0  2  0  0  0  0
    2.1434   -0.7697    0.0000 C   0  0  0  0  0  0  0  2  0  0  0  0
    1.4289   -1.1822    0.0000 C   0  0  0  0  0  0  0  2  0  0  0  0
    0.7145   -0.7697    0.0000 C   0  0  0  0  0  0  0  2  0  0  0  0
  1  2  1  0        0
  2  3  1  0        0
  3  4  4  0        0
  4  5  4  0        0
  5  6  4  0        0
  6  7  4  0        0
  7  8  4  0        0
  3  8  4  0        0
  2  9  1  0        0
  2 10  1  0        0
 10 11  4  0        0
 11 12  4  0        0
 12 13  4  0        0
 13 14  4  0        0
 14 15  4  0        0
 10 15  4  0        0
M  END
>  <CAS RN>
1135995

>  <SMILES>
Cl[Sn](c1ccccc1)(Cl)c1ccccc1

>  <Measured or Estimated Log10(mmol/L)>
-3.110418031

$$$$

CDXL12

 15 15  0  0  0  0  0  0  0  0999 V2000
    0.0000   -1.6500    0.0000 O   0  0  0  0  0  0  0  2  0  0  0  0
    0.0000   -0.8250    0.0000 C   0  0  0  0  0  0  0  2  0  0  0  0
   -0.7145   -0.4125    0.0000 C   0  0  0  0  0  0  0  2  0  0  0  0
   -0.7145    0.4125    0.0000 C   0  0  0  0  0  0  0  2  0  0  0  0
    0.0000    0.8250    0.0000 C   0  0  0  0  0  0  0  2  0  0  0  0
    0.7145    0.4125    0.0000 C   0  0  0  0  0  0  0  2  0  0  0  0
    1.4289    0.8250    0.0000 C   0  0  0  0  0  0  0  2  0  0  0  0
    1.4289    1.6500    0.0000 C   0  0  0  0  0  0  0  2  0  0  0  0
    2.1434    1.2375    0.0000 C   0  0  0  0  0  0  0  2  0  0  0  0
    2.1434    0.4125    0.0000 C   0  0  0  0  0  0  0  2  0  0  0  0
    0.7145   -0.4125    0.0000 C   0  0  0  0  0  0  0  2  0  0  0  0
   -1.4289    0.8250    0.0000 C   0  0  0  0  0  0  0  2  0  0  0  0
   -2.1434    1.2375    0.0000 C   0  0  0  0  0  0  0  2  0  0  0  0
   -1.4289    1.6500    0.0000 C   0  0  0  0  0  0  0  2  0  0  0  0
   -2.1434    0.4125    0.0000 C   0  0  0  0  0  0  0  2  0  0  0  0
  1  2  1  0        0
  2  3  4  0        0
  3  4  4  0        0
  4  5  4  0        0
  5  6  4  0        0
  6  7  1  0        0
  7  8  1  0        0
  7  9  1  0        0
  7 10  1  0        0
  6 11  4  0        0
  2 11  4  0        0
  4 12  1  0        0
 12 13  1  0        0
 12 14  1  0        0
 12 15  1  0        0
M  END
>  <CAS RN>
1138529

>  <SMILES>
Oc1cc(cc(C(C)(C)C)c1)C(C)(C)C

>  <Measured or Estimated Log10(mmol/L)>
-2.084111341

$$$$

CDXL12

 20 19  0  0  0  0  0  0  0  0999 V2000
    4.6441    0.0000    0.0000 S   0  0  0  0  0  0  0  2  0  0  0  0
    5.0566   -0.7145    0.0000 O   0  0  0  0  0  0  0  2  0  0  0  0
    4.2316    0.7145    0.0000 O   0  0  0  0  0  0  0  2  0  0  0  0
    5.3585    0.4125    0.0000 O   0  0  0  0  0  0  0  2  0  0  0  0
    6.0730   -0.0000    0.0000 Na  0  0  0  0  0  0  0  2  0  0  0  0
    3.9296   -0.4125    0.0000 O   0  0  0  0  0  0  0  2  0  0  0  0
    3.2151   -0.0000    0.0000 C   0  0  0  0  0  0  0  2  0  0  0  0
    2.5006   -0.4125    0.0000 C   0  0  0  0  0  0  0  2  0  0  0  0
    1.7862   -0.0000    0.0000 C   0  0  0  0  0  0  0  2  0  0  0  0
    1.0717   -0.4125    0.0000 C   0  0  0  0  0  0  0  2  0  0  0  0
    0.3572   -0.0000    0.0000 C   0  0  0  0  0  0  0  2  0  0  0  0
   -0.3572   -0.4125    0.0000 C   0  0  0  0  0  0  0  2  0  0  0  0
   -1.0717   -0.0000    0.0000 C   0  0  0  0  0  0  0  2  0  0  0  0
   -1.7862   -0.4125    0.0000 C   0  0  0  0  0  0  0  2  0  0  0  0
   -2.5006   -0.0000    0.0000 C   0  0  0  0  0  0  0  2  0  0  0  0
   -3.2151   -0.4125    0.0000 C   0  0  0  0  0  0  0  2  0  0  0  0
   -3.9296   -0.0000    0.0000 C   0  0  0  0  0  0  0  2  0  0  0  0
   -4.6441   -0.4125    0.0000 C   0  0  0  0  0  0  0  2  0  0  0  0
   -5.3585   -0.0000    0.0000 C   0  0  0  0  0  0  0  2  0  0  0  0
   -6.0730   -0.4125    0.0000 C   0  0  0  0  0  0  0  2  0  0  0  0
  1  2  2  0        0
  1  3  2  0        0
  1  4  1  0        0
  4  5  1  0        0
  1  6  1  0        0
  6  7  1  0        0
  7  8  1  0        0
  8  9  1  0        0
  9 10  1  0        0
 10 11  1  0        0
 11 12  1  0        0
 12 13  1  0        0
 13 14  1  0        0
 14 15  1  0        0
 15 16  1  0        0
 16 17  1  0        0
 17 18  1  0        0
 18 19  1  0        0
 19 20  1  0        0
M  END
>  <CAS RN>
1191500

>  <SMILES>
S(=O)(=O)(O[Na])OCCCCCCCCCCCCCC

>  <Measured or Estimated Log10(mmol/L)>
-1.248925718

$$$$

CDXL12

  8  8  0  0  0  0  0  0  0  0999 V2000
   -1.4289    0.4125    0.0000 C   0  0  0  0  0  0  0  2  0  0  0  0
   -0.7145    0.8250    0.0000 C   0  0  0  0  0  0  0  2  0  0  0  0
    0.0000    0.4125    0.0000 C   0  0  0  0  0  0  0  2  0  0  0  0
    0.0000   -0.4125    0.0000 C   0  0  0  0  0  0  0  2  0  0  0  0
   -0.7145   -0.8250    0.0000 C   0  0  0  0  0  0  0  2  0  0  0  0
   -1.4289   -0.4125    0.0000 C   0  0  0  0  0  0  0  2  0  0  0  0
    0.7145   -0.8250    0.0000 Hg  0  0  0  0  0  0  0  2  0  0  0  0
    1.4289   -0.4125    0.0000 Br  0  0  0  0  0  0  0  2  0  0  0  0
  1  2  4  0        0
  2  3  4  0        0
  3  4  4  0        0
  4  5  4  0        0
  5  6  4  0        0
  1  6  4  0        0
  4  7  1  0        0
  7  8  1  0        0
M  END
>  <CAS RN>
1192898

>  <SMILES>
c1ccc(cc1)[Hg]Br

>  <Measured or Estimated Log10(mmol/L)>
-2.566631848

$$$$

CDXL12

 10 10  0  0  0  0  0  0  0  0999 V2000
    1.7862   -0.4125    0.0000 O   0  0  0  0  0  0  0  2  0  0  0  0
    1.0717   -0.8250    0.0000 C   0  0  0  0  0  0  0  2  0  0  0  0
    0.3572   -0.4125    0.0000 C   0  0  0  0  0  0  0  2  0  0  0  0
    0.3572    0.4125    0.0000 C   0  0  0  0  0  0  0  2  0  0  0  0
    1.0717    0.8250    0.0000 O   0  0  0  0  0  0  0  2  0  0  0  0
   -0.3572    0.8250    0.0000 C   0  0  0  0  0  0  0  2  0  0  0  0
   -1.0717    0.4125    0.0000 C   0  0  0  0  0  0  0  2  0  0  0  0
   -1.0717   -0.4125    0.0000 C   0  0  0  0  0  0  0  2  0  0  0  0
   -1.7862   -0.8250    0.0000 O   0  0  0  0  0  0  0  2  0  0  0  0
   -0.3572   -0.8250    0.0000 C   0  0  0  0  0  0  0  2  0  0  0  0
  1  2  2  0        0
  2  3  1  0        0
  3  4  4  0        0
  4  5  1  0        0
  4  6  4  0        0
  6  7  4  0        0
  7  8  4  0        0
  8  9  1  0        0
  8 10  4  0        0
  3 10  4  0        0
M  END
>  <CAS RN>
1194985

>  <SMILES>
O=Cc1c(O)ccc(O)c1

>  <Measured or Estimated Log10(mmol/L)>
-0.818043554

$$$$

CDXL12

 12 12  0  0  0  0  0  0  0  0999 V2000
    1.4289   -0.8250    0.0000 O   0  0  0  0  0  0  0  2  0  0  0  0
    0.7145   -0.4125    0.0000 C   0  0  0  0  0  0  0  2  0  0  0  0
    0.0000   -0.8250    0.0000 C   0  0  0  0  0  0  0  2  0  0  0  0
   -0.7145   -0.4125    0.0000 C   0  0  0  0  0  0  0  2  0  0  0  0
   -0.7145    0.4125    0.0000 C   0  0  0  0  0  0  0  2  0  0  0  0
    0.0000    0.8250    0.0000 C   0  0  0  0  0  0  0  2  0  0  0  0
    0.0000    1.6500    0.0000 Cl  0  0  0  0  0  0  0  2  0  0  0  0
    0.7145    0.4125    0.0000 C   0  0  0  0  0  0  0  2  0  0  0  0
    1.4289    0.8250    0.0000 O   0  0  0  0  0  0  0  2  0  0  0  0
   -1.4289    0.8250    0.0000 Cl  0  0  0  0  0  0  0  2  0  0  0  0
   -1.4289   -0.8250    0.0000 Cl  0  0  0  0  0  0  0  2  0  0  0  0
    0.0000   -1.6500    0.0000 Cl  0  0  0  0  0  0  0  2  0  0  0  0
  1  2  1  0        0
  2  3  4  0        0
  3  4  4  0        0
  4  5  4  0        0
  5  6  4  0        0
  6  7  1  0        0
  6  8  4  0        0
  2  8  4  0        0
  8  9  1  0        0
  5 10  1  0        0
  4 11  1  0        0
  3 12  1  0        0
M  END
>  <CAS RN>
1198556

>  <SMILES>
Oc1c(c(c(c(Cl)c1O)Cl)Cl)Cl

>  <Measured or Estimated Log10(mmol/L)>
-2.415246371

$$$$

CDXL12

 25 26  0  0  0  0  0  0  0  0999 V2000
   -1.0717   -1.4438    0.0000 O   0  0  0  0  0  0  0  2  0  0  0  0
   -1.0717   -0.6187    0.0000 P   0  0  0  0  0  0  0  2  0  0  0  0
   -1.7862   -0.2062    0.0000 O   0  0  0  0  0  0  0  2  0  0  0  0
   -2.5006   -0.6187    0.0000 C   0  0  0  0  0  0  0  2  0  0  0  0
   -2.5006   -1.4437    0.0000 C   0  0  0  0  0  0  0  2  0  0  0  0
   -3.2151   -1.8563    0.0000 C   0  0  0  0  0  0  0  2  0  0  0  0
   -3.9296   -1.4438    0.0000 C   0  0  0  0  0  0  0  2  0  0  0  0
   -3.9296   -0.6188    0.0000 C   0  0  0  0  0  0  0  2  0  0  0  0
   -3.2151   -0.2062    0.0000 C   0  0  0  0  0  0  0  2  0  0  0  0
   -1.0717    0.2062    0.0000 O   0  0  0  0  0  0  0  2  0  0  0  0
   -1.7862    0.6188    0.0000 C   0  0  0  0  0  0  0  2  0  0  0  0
   -2.5006    0.2062    0.0000 C   0  0  0  0  0  0  0  2  0  0  0  0
   -3.2151    0.6188    0.0000 C   0  0  0  0  0  0  0  2  0  0  0  0
   -3.2151    1.4438    0.0000 C   0  0  0  0  0  0  0  2  0  0  0  0
   -2.5006    1.8563    0.0000 C   0  0  0  0  0  0  0  2  0  0  0  0
   -1.7862    1.4438    0.0000 C   0  0  0  0  0  0  0  2  0  0  0  0
   -0.3572   -0.2062    0.0000 O   0  0  0  0  0  0  0  2  0  0  0  0
    0.3572   -0.6187    0.0000 C   0  0  0  0  0  0  0  2  0  0  0  0
    1.0717   -0.2062    0.0000 C   0  0  0  0  0  0  0  2  0  0  0  0
    1.0717    0.6188    0.0000 C   0  0  0  0  0  0  0  2  0  0  0  0
    1.7862    1.0313    0.0000 C   0  0  0  0  0  0  0  2  0  0  0  0
    1.7862   -0.6187    0.0000 C   0  0  0  0  0  0  0  2  0  0  0  0
    2.5006   -0.2062    0.0000 C   0  0  0  0  0  0  0  2  0  0  0  0
    3.2151   -0.6187    0.0000 C   0  0  0  0  0  0  0  2  0  0  0  0
    3.9296   -0.2062    0.0000 C   0  0  0  0  0  0  0  2  0  0  0  0
  1  2  2  0        0
  2  3  1  0        0
  3  4  1  0        0
  4  5  4  0        0
  5  6  4  0        0
  6  7  4  0        0
  7  8  4  0        0
  8  9  4  0        0
  4  9  4  0        0
  2 10  1  0        0
 10 11  1  0        0
 11 12  4  0        0
 12 13  4  0        0
 13 14  4  0        0
 14 15  4  0        0
 15 16  4  0        0
 11 16  4  0        0
  2 17  1  0        0
 17 18  1  0        0
 18 19  1  0        0
 19 20  1  0        0
 20 21  1  0        0
 19 22  1  0        0
 22 23  1  0        0
 23 24  1  0        0
 24 25  1  0        0
M  END
>  <CAS RN>
1241947

>  <SMILES>
O=P(Oc1ccccc1)(Oc1ccccc1)OCC(CC)CCCC

>  <Measured or Estimated Log10(mmol/L)>
-3.38310412

$$$$

CDXL12

  2  1  0  0  0  0  0  0  0  0999 V2000
   -0.4125    0.0000    0.0000 Cd  0  0  0  0  0  0  0  2  0  0  0  0
    0.4125    0.0000    0.0000 S   0  0  0  0  0  0  0  2  0  0  0  0
  1  2  1  0        0
M  END
>  <CAS RN>
1306236

>  <SMILES>
[Cd]S

>  <Measured or Estimated Log10(mmol/L)>
-3.228280958

$$$$

CDXL12

  8  8  0  0  0  0  0  0  0  0999 V2000
    0.4125    0.4125    0.0000 U   0  0  0  0  0  0  0  2  0  0  0  0
    1.2094    0.6260    0.0000 O   0  0  0  0  0  0  0  2  0  0  0  0
    0.6260    1.2094    0.0000 O   0  0  0  0  0  0  0  2  0  0  0  0
    0.4125   -0.4125    0.0000 O   0  0  0  0  0  0  0  2  0  0  0  0
   -0.4125   -0.4125    0.0000 S   0  0  0  0  0  0  0  2  0  0  0  0
   -0.4125    0.4125    0.0000 O   0  0  0  0  0  0  0  2  0  0  0  0
   -1.2094   -0.6260    0.0000 O   0  0  0  0  0  0  0  2  0  0  0  0
   -0.6260   -1.2094    0.0000 O   0  0  0  0  0  0  0  2  0  0  0  0
  1  2  2  0        0
  1  3  2  0        0
  1  4  1  0        0
  4  5  1  0        0
  5  6  1  0        0
  1  6  1  0        0
  5  7  2  0        0
  5  8  2  0        0
M  END
>  <CAS RN>
1314643

>  <SMILES>
[U]1(=O)(=O)OS(O1)(=O)=O

>  <Measured or Estimated Log10(mmol/L)>
-1.402752633

$$$$

CDXL12

  2  1  0  0  0  0  0  0  0  0999 V2000
   -0.4125    0.0000    0.0000 Zn  0  0  0  0  0  0  0  2  0  0  0  0
    0.4125    0.0000    0.0000 S   0  0  0  0  0  0  0  2  0  0  0  0
  1  2  2  0        0
M  END
>  <CAS RN>
1314983

>  <SMILES>
[Zn]=S

>  <Measured or Estimated Log10(mmol/L)>
-2.001938798

$$$$

CDXL12

  5  4  0  0  0  0  0  0  0  0999 V2000
   -1.4289   -0.2062    0.0000 O   0  0  0  0  0  0  0  2  0  0  0  0
   -0.7145    0.2062    0.0000 As  0  0  0  0  0  0  0  2  0  0  0  0
    0.0000   -0.2062    0.0000 O   0  0  0  0  0  0  0  2  0  0  0  0
    0.7145    0.2062    0.0000 As  0  0  0  0  0  0  0  2  0  0  0  0
    1.4289   -0.2062    0.0000 O   0  0  0  0  0  0  0  2  0  0  0  0
  1  2  2  0        0
  2  3  1  0        0
  3  4  1  0        0
  4  5  2  0        0
M  END
>  <CAS RN>
1327533

>  <SMILES>
O=[As]O[As]=O

>  <Measured or Estimated Log10(mmol/L)>
-1.043403827

$$$$

CDXL12

  8  8  0  0  0  0  0  0  0  0999 V2000
    1.0717   -0.8250    0.0000 C   0  0  0  0  0  0  0  2  0  0  0  0
    0.3572   -0.4125    0.0000 C   0  0  0  0  0  0  0  2  0  0  0  0
   -0.3572   -0.8250    0.0000 C   0  0  0  0  0  0  0  2  0  0  0  0
   -1.0717   -0.4125    0.0000 C   0  0  0  0  0  0  0  2  0  0  0  0
   -1.0717    0.4125    0.0000 C   0  0  0  0  0  0  0  2  0  0  0  0
   -0.3572    0.8250    0.0000 C   0  0  0  0  0  0  0  2  0  0  0  0
    0.3572    0.4125    0.0000 C   0  0  0  0  0  0  0  2  0  0  0  0
    1.0717    0.8250    0.0000 C   0  0  0  0  0  0  0  2  0  0  0  0
  1  2  1  0        0
  2  3  4  0        0
  3  4  4  0        0
  4  5  4  0        0
  5  6  4  0        0
  6  7  4  0        0
  2  7  4  0        0
  7  8  1  0        0
M  END
>  <CAS RN>
1330207

>  <SMILES>
Cc1ccccc1C

>  <Measured or Estimated Log10(mmol/L)>
-0.1395535

$$$$

CDXL12

 13 12  0  0  0  0  0  0  0  0999 V2000
   -2.1434   -0.4125    0.0000 B   0  0  0  0  0  0  0  2  0  0  0  0
   -2.8579   -0.8250    0.0000 O   0  0  0  0  0  0  0  2  0  0  0  0
   -1.4289   -0.8250    0.0000 O   0  0  0  0  0  0  0  2  0  0  0  0
   -0.7145   -0.4125    0.0000 B   0  0  0  0  0  0  0  2  0  0  0  0
    0.0000   -0.8250    0.0000 O   0  0  0  0  0  0  0  2  0  0  0  0
    0.7145   -0.4125    0.0000 B   0  0  0  0  0  0  0  2  0  0  0  0
    1.4289   -0.8250    0.0000 O   0  0  0  0  0  0  0  2  0  0  0  0
    2.1434   -0.4125    0.0000 B   0  0  0  0  0  0  0  2  0  0  0  0
    2.8579   -0.8250    0.0000 O   0  0  0  0  0  0  0  2  0  0  0  0
    0.7145    0.4125    0.0000 O   0  0  0  0  0  0  0  2  0  0  0  0
    1.4289    0.8250    0.0000 Na  0  0  0  0  0  0  0  2  0  0  0  0
   -0.7145    0.4125    0.0000 O   0  0  0  0  0  0  0  2  0  0  0  0
   -1.4289    0.8250    0.0000 Na  0  0  0  0  0  0  0  2  0  0  0  0
  1  2  2  0        0
  1  3  1  0        0
  3  4  1  0        0
  4  5  1  0        0
  5  6  1  0        0
  6  7  1  0        0
  7  8  1  0        0
  8  9  2  0        0
  6 10  1  0        0
 10 11  1  0        0
  4 12  1  0        0
 12 13  1  0        0
M  END
>  <CAS RN>
1330434

>  <SMILES>
B(=O)OB(OB(OB=O)O[Na])O[Na]

>  <Measured or Estimated Log10(mmol/L)>
-0.154445557

$$$$

CDXL12

 29 31  0  0  0  0  0  0  0  0999 V2000
   -0.0000   -1.6912    0.0000 O   0  0  0  0  0  0  0  2  0  0  0  0
   -0.0000   -0.8662    0.0000 P   0  0  0  0  0  0  0  2  0  0  0  0
   -0.7145   -0.4537    0.0000 O   0  0  0  0  0  0  0  2  0  0  0  0
   -1.4289   -0.8662    0.0000 C   0  0  0  0  0  0  0  2  0  0  0  0
   -2.1434   -0.4537    0.0000 C   0  0  0  0  0  0  0  2  0  0  0  0
   -2.8579   -0.8662    0.0000 C   0  0  0  0  0  0  0  2  0  0  0  0
   -2.8579   -1.6912    0.0000 C   0  0  0  0  0  0  0  2  0  0  0  0
   -3.5724   -2.1037    0.0000 O   0  0  0  0  0  0  0  2  0  0  0  0
   -2.1434   -2.1037    0.0000 C   0  0  0  0  0  0  0  2  0  0  0  0
   -1.4289   -1.6912    0.0000 C   0  0  0  0  0  0  0  2  0  0  0  0
   -0.7145   -2.1038    0.0000 C   0  0  0  0  0  0  0  2  0  0  0  0
    0.7145   -0.4537    0.0000 O   0  0  0  0  0  0  0  2  0  0  0  0
    1.4289   -0.8662    0.0000 C   0  0  0  0  0  0  0  2  0  0  0  0
    2.1434   -0.4537    0.0000 C   0  0  0  0  0  0  0  2  0  0  0  0
    2.8579   -0.8662    0.0000 C   0  0  0  0  0  0  0  2  0  0  0  0
    3.5724   -0.4537    0.0000 O   0  0  0  0  0  0  0  2  0  0  0  0
    2.8579   -1.6912    0.0000 C   0  0  0  0  0  0  0  2  0  0  0  0
    2.1434   -2.1038    0.0000 C   0  0  0  0  0  0  0  2  0  0  0  0
    1.4289   -1.6912    0.0000 C   0  0  0  0  0  0  0  2  0  0  0  0
    0.7145   -2.1037    0.0000 C   0  0  0  0  0  0  0  2  0  0  0  0
   -0.0000    0.4537    0.0000 O   0  0  0  0  0  0  0  2  0  0  0  0
   -0.7145    0.8662    0.0000 C   0  0  0  0  0  0  0  2  0  0  0  0
   -1.4289    0.4537    0.0000 C   0  0  0  0  0  0  0  2  0  0  0  0
   -1.4289   -0.3712    0.0000 O   0  0  0  0  0  0  0  2  0  0  0  0
   -2.1434    0.8662    0.0000 C   0  0  0  0  0  0  0  2  0  0  0  0
   -2.1434    1.6912    0.0000 C   0  0  0  0  0  0  0  2  0  0  0  0
   -1.4289    2.1038    0.0000 C   0  0  0  0  0  0  0  2  0  0  0  0
   -0.7145    1.6912    0.0000 C   0  0  0  0  0  0  0  2  0  0  0  0
   -0.0000    2.1038    0.0000 C   0  0  0  0  0  0  0  2  0  0  0  0
  1  2  2  0        0
  2  3  1  0        0
  3  4  1  0        0
  4  5  4  0        0
  5  6  4  0        0
  6  7  4  0        0
  7  8  1  0        0
  7  9  4  0        0
  9 10  4  0        0
  4 10  4  0        0
 10 11  1  0        0
  2 12  1  0        0
 12 13  1  0        0
 13 14  4  0        0
 14 15  4  0        0
 15 16  1  0        0
 15 17  4  0        0
 17 18  4  0        0
 18 19  4  0        0
 13 19  4  0        0
 19 20  1  0        0
  2 21  1  0        0
 21 22  1  0        0
 22 23  4  0        0
 23 24  1  0        0
 23 25  4  0        0
 25 26  4  0        0
 26 27  4  0        0
 27 28  4  0        0
 22 28  4  0        0
 28 29  1  0        0
M  END
>  <CAS RN>
1330785

>  <SMILES>
O=P(Oc1ccc(O)cc1C)(Oc1cc(O)ccc1C)Oc1c(O)cccc1C

>  <Measured or Estimated Log10(mmol/L)>
-2.1810842

$$$$

CDXL12

  4  3  0  0  0  0  0  0  0  0999 V2000
    0.0000   -0.2062    0.0000 Cr  0  0  0  0  0  0  0  2  0  0  0  0
    0.0000    0.6188    0.0000 O   0  0  0  0  0  0  0  2  0  0  0  0
   -0.7145   -0.6188    0.0000 O   0  0  0  0  0  0  0  2  0  0  0  0
    0.7145   -0.6188    0.0000 O   0  0  0  0  0  0  0  2  0  0  0  0
  1  2  2  0        0
  1  3  2  0        0
  1  4  2  0        0
M  END
>  <CAS RN>
1333820

>  <SMILES>
[Cr](=O)(=O)=O

>  <Measured or Estimated Log10(mmol/L)>
-2.790454584

$$$$

CDXL12

  6  5  0  0  0  0  0  0  0  0999 V2000
    0.4849   -0.7462    0.0000 O   0  0  0  0  0  0  0  2  0  0  0  0
    0.0000   -0.0788    0.0000 N   0  0  0  0  0  0  0  2  0  0  0  0
    0.7846    0.1762    0.0000 H   0  0  0  0  0  0  0  2  0  0  0  0
    0.0000    0.7462    0.0000 H   0  0  0  0  0  0  0  2  0  0  0  0
   -0.7846    0.1762    0.0000 H   0  0  0  0  0  0  0  2  0  0  0  0
   -0.4849   -0.7462    0.0000 H   0  0  0  0  0  0  0  2  0  0  0  0
  1  2  1  0        0
  2  3  1  0        0
  2  4  1  0        0
  2  5  1  0        0
  2  6  1  0        0
M  END
>  <CAS RN>
1336216

>  <SMILES>
ON([H])([H])([H])[H]

>  <Measured or Estimated Log10(mmol/L)>
-0.647009894

$$$$

CDXL12

  6  5  0  0  0  0  0  0  0  0999 V2000
    1.4289   -0.2062    0.0000 Na  0  0  0  0  0  0  0  2  0  0  0  0
    0.7145   -0.6188    0.0000 O   0  0  0  0  0  0  0  2  0  0  0  0
    0.0000   -0.2062    0.0000 Si  0  0  0  0  0  0  0  2  0  0  0  0
    0.0000    0.6188    0.0000 O   0  0  0  0  0  0  0  2  0  0  0  0
   -0.7145   -0.6187    0.0000 O   0  0  0  0  0  0  0  2  0  0  0  0
   -1.4289   -0.2062    0.0000 Na  0  0  0  0  0  0  0  2  0  0  0  0
  1  2  1  0        0
  2  3  1  0        0
  3  4  2  0        0
  3  5  1  0        0
  5  6  1  0        0
M  END
>  <CAS RN>
1344098

>  <SMILES>
[Na]O[Si](=O)O[Na]

>  <Measured or Estimated Log10(mmol/L)>
0.607142909

$$$$

CDXL12

 64 67  0  0  0  0  0  0  0  0999 V2000
    0.0553   -2.0625    0.0000 O   0  0  0  0  0  0  0  2  0  0  0  0
    0.0553   -1.2375    0.0000 C   0  0  0  0  0  0  0  2  0  0  0  0
   -0.6592   -0.8250    0.0000 C   0  0  0  0  0  0  0  2  0  0  0  0
   -0.6592   -0.0000    0.0000 C   0  0  0  0  0  0  0  2  0  0  0  0
   -1.3737    0.4125    0.0000 C   0  0  0  0  0  0  0  2  0  0  0  0
   -1.3737    1.2375    0.0000 C   0  0  0  0  0  0  0  2  0  0  0  0
   -2.0881    1.6500    0.0000 O   0  0  0  0  0  0  0  2  0  0  0  0
   -2.8026    1.2375    0.0000 C   0  0  0  0  0  0  0  2  0  0  0  0
   -3.5171    1.6500    0.0000 C   0  0  0  0  0  0  0  2  0  0  0  0
   -4.2316    1.2375    0.0000 C   0  0  0  0  0  0  0  2  0  0  0  0
   -4.9460    1.6500    0.0000 N   0  0  0  0  0  0  0  2  0  0  0  0
   -4.9460    2.4750    0.0000 C   0  0  0  0  0  0  0  2  0  0  0  0
   -5.6605    1.2375    0.0000 C   0  0  0  0  0  0  0  2  0  0  0  0
   -4.2316    0.4125    0.0000 C   0  0  0  0  0  0  0  2  0  0  0  0
   -3.5171   -0.0000    0.0000 C   0  0  0  0  0  0  0  2  0  0  0  0
   -2.8026    0.4125    0.0000 O   0  0  0  0  0  0  0  2  0  0  0  0
   -3.5171   -0.8250    0.0000 C   0  0  0  0  0  0  0  2  0  0  0  0
   -4.9460   -0.0000    0.0000 O   0  0  0  0  0  0  0  2  0  0  0  0
   -4.9460   -0.8250    0.0000 C   0  0  0  0  0  0  0  2  0  0  0  0
   -5.6605   -1.2375    0.0000 C   0  0  0  0  0  0  0  2  0  0  0  0
   -5.6605   -2.0625    0.0000 C   0  0  0  0  0  0  0  2  0  0  0  0
   -6.4855   -2.0625    0.0000 O   0  0  0  0  0  0  0  2  0  0  0  0
   -6.0730   -2.7770    0.0000 C   0  0  0  0  0  0  0  2  0  0  0  0
   -4.9460   -2.4750    0.0000 C   0  0  0  0  0  0  0  2  0  0  0  0
   -4.2316   -2.0625    0.0000 C   0  0  0  0  0  0  0  2  0  0  0  0
   -4.2316   -1.2375    0.0000 O   0  0  0  0  0  0  0  2  0  0  0  0
   -3.5171   -2.4750    0.0000 C   0  0  0  0  0  0  0  2  0  0  0  0
   -4.9460   -3.3000    0.0000 O   0  0  0  0  0  0  0  2  0  0  0  0
   -3.5171    2.4750    0.0000 O   0  0  0  0  0  0  0  2  0  0  0  0
   -0.6592    1.6500    0.0000 C   0  0  0  0  0  0  0  2  0  0  0  0
    0.0553    1.2375    0.0000 C   0  0  0  0  0  0  0  2  0  0  0  0
    0.7697    1.6500    0.0000 C   0  0  0  0  0  0  0  2  0  0  0  0
    1.4842    1.2375    0.0000 C   0  0  0  0  0  0  0  2  0  0  0  0
    1.4842    0.4125    0.0000 O   0  0  0  0  0  0  0  2  0  0  0  0
    2.1987    1.6500    0.0000 C   0  0  0  0  0  0  0  2  0  0  0  0
    2.9131    1.2375    0.0000 C   0  0  0  0  0  0  0  2  0  0  0  0
    2.9131    0.4125    0.0000 C   0  0  0  0  0  0  0  2  0  0  0  0
    2.1987   -0.0000    0.0000 C   0  0  0  0  0  0  0  2  0  0  0  0
    2.1987   -0.8250    0.0000 C   0  0  0  0  0  0  0  2  0  0  0  0
    1.4842   -1.2375    0.0000 C   0  0  0  0  0  0  0  2  0  0  0  0
    0.7697   -0.8250    0.0000 O   0  0  0  0  0  0  0  2  0  0  0  0
    1.4842   -2.0625    0.0000 C   0  0  0  0  0  0  0  2  0  0  0  0
    2.1987   -2.4750    0.0000 C   0  0  0  0  0  0  0  2  0  0  0  0
    2.9131   -1.2375    0.0000 C   0  0  0  0  0  0  0  2  0  0  0  0
    3.6276   -0.8250    0.0000 O   0  0  0  0  0  0  0  2  0  0  0  0
    4.3421   -1.2375    0.0000 C   0  0  0  0  0  0  0  2  0  0  0  0
    4.3421   -2.0625    0.0000 C   0  0  0  0  0  0  0  2  0  0  0  0
    5.0566   -2.4750    0.0000 C   0  0  0  0  0  0  0  2  0  0  0  0
    5.0566   -3.3000    0.0000 O   0  0  0  0  0  0  0  2  0  0  0  0
    5.7710   -3.7125    0.0000 C   0  0  0  0  0  0  0  2  0  0  0  0
    5.7710   -2.0625    0.0000 C   0  0  0  0  0  0  0  2  0  0  0  0
    5.7710   -1.2375    0.0000 C   0  0  0  0  0  0  0  2  0  0  0  0
    5.0566   -0.8250    0.0000 O   0  0  0  0  0  0  0  2  0  0  0  0
    6.4855   -0.8250    0.0000 C   0  0  0  0  0  0  0  2  0  0  0  0
    6.4855   -2.4750    0.0000 O   0  0  0  0  0  0  0  2  0  0  0  0
    3.6276   -2.4750    0.0000 O   0  0  0  0  0  0  0  2  0  0  0  0
    2.9131   -2.0625    0.0000 C   0  0  0  0  0  0  0  2  0  0  0  0
    3.6276   -0.0000    0.0000 C   0  0  0  0  0  0  0  2  0  0  0  0
    0.7697    2.4750    0.0000 C   0  0  0  0  0  0  0  2  0  0  0  0
   -0.6592    2.4750    0.0000 C   0  0  0  0  0  0  0  2  0  0  0  0
   -1.3737    2.8875    0.0000 C   0  0  0  0  0  0  0  2  0  0  0  0
   -1.3737    3.7125    0.0000 O   0  0  0  0  0  0  0  2  0  0  0  0
   -2.0881   -0.0000    0.0000 C   0  0  0  0  0  0  0  2  0  0  0  0
    0.0553    0.4125    0.0000 O   0  0  0  0  0  0  0  2  0  0  0  0
  1  2  2  0        0
  2  3  1  0        0
  3  4  1  0        0
  4  5  1  0        0
  5  6  1  0        0
  6  7  1  0        0
  7  8  1  0        0
  8  9  1  0        0
  9 10  1  0        0
 10 11  1  0        0
 11 12  1  0        0
 11 13  1  0        0
 10 14  1  0        0
 14 15  1  0        0
 15 16  1  0        0
  8 16  1  0        0
 15 17  1  0        0
 14 18  1  0        0
 18 19  1  0        0
 19 20  1  0        0
 20 21  1  0        0
 21 22  1  0        0
 21 23  1  0        0
 21 24  1  0        0
 24 25  1  0        0
 25 26  1  0        0
 19 26  1  0        0
 25 27  1  0        0
 24 28  1  0        0
  9 29  1  0        0
  6 30  1  0        0
 30 31  1  0        0
 31 32  1  0        0
 32 33  1  0        0
 33 34  2  0        0
 33 35  1  0        0
 35 36  2  0        0
 36 37  1  0        0
 37 38  2  0        0
 38 39  1  0        0
 39 40  1  0        0
 40 41  1  0        0
  2 41  1  0        0
 40 42  1  0        0
 42 43  1  0        0
 39 44  1  0        0
 44 45  1  0        0
 45 46  1  0        0
 46 47  1  0        0
 47 48  1  0        0
 48 49  1  0        0
 49 50  1  0        0
 48 51  1  0        0
 51 52  1  0        0
 52 53  1  0        0
 46 53  1  0        0
 52 54  1  0        0
 51 55  1  0        0
 47 56  1  0        0
 56 57  1  0        0
 37 58  1  0        0
 32 59  1  0        0
 30 60  1  0        0
 60 61  1  0        0
 61 62  2  0        0
  5 63  1  0        0
  4 64  1  0        0
M  END
>  <CAS RN>
1401690

>  <SMILES>
O=C1CC(C(C(OC2C(C(N(C)C)C(C(O2)C)OC2CC(O)(C)C(C(O2)C)O)O)C(CC(C(=O)C=CC(=CC(C(O1)CC)COC1C(C(OC)C(C(O1)C)O)OC)C)C)CC=O)C)O

>  <Measured or Estimated Log10(mmol/L)>
-0.12943965

$$$$

CDXL12

 11 10  0  0  0  0  0  0  0  0999 V2000
    0.0000    0.8250    0.0000 O   0  0  0  0  0  0  0  2  0  0  0  0
    0.0000   -0.0000    0.0000 P   0  0  0  0  0  0  0  2  0  0  0  0
    0.7145   -0.4125    0.0000 O   0  0  0  0  0  0  0  2  0  0  0  0
    1.4289    0.0000    0.0000 C   0  0  0  0  0  0  0  2  0  0  0  0
    1.4289    0.8250    0.0000 C   0  0  0  0  0  0  0  2  0  0  0  0
    2.1434   -0.4125    0.0000 C   0  0  0  0  0  0  0  2  0  0  0  0
   -0.7145   -0.4125    0.0000 O   0  0  0  0  0  0  0  2  0  0  0  0
   -1.4289   -0.0000    0.0000 C   0  0  0  0  0  0  0  2  0  0  0  0
   -2.1434   -0.4125    0.0000 C   0  0  0  0  0  0  0  2  0  0  0  0
   -1.4289    0.8250    0.0000 C   0  0  0  0  0  0  0  2  0  0  0  0
    0.0000   -0.8250    0.0000 C   0  0  0  0  0  0  0  2  0  0  0  0
  1  2  2  0        0
  2  3  1  0        0
  3  4  1  0        0
  4  5  1  0        0
  4  6  1  0        0
  2  7  1  0        0
  7  8  1  0        0
  8  9  1  0        0
  8 10  1  0        0
  2 11  1  0        0
M  END
>  <CAS RN>
1445756

>  <SMILES>
O=P(OC(C)C)(OC(C)C)C

>  <Measured or Estimated Log10(mmol/L)>
0.170795038

$$$$

CDXL12

 10 11  0  0  0  0  0  0  0  0999 V2000
    0.0797    0.7260    0.0000 C   0  0  0  0  0  0  0  2  0  0  0  0
    0.8643    0.9810    0.0000 S   0  0  0  0  0  0  0  2  0  0  0  0
    1.3492    0.3135    0.0000 C   0  0  0  0  0  0  0  2  0  0  0  0
    0.8643   -0.3539    0.0000 C   0  0  0  0  0  0  0  2  0  0  0  0
    1.1193   -1.1385    0.0000 C   0  0  0  0  0  0  0  2  0  0  0  0
    0.0797   -0.0990    0.0000 C   0  0  0  0  0  0  0  2  0  0  0  0
   -0.6348   -0.5115    0.0000 C   0  0  0  0  0  0  0  2  0  0  0  0
   -1.3492   -0.0990    0.0000 C   0  0  0  0  0  0  0  2  0  0  0  0
   -1.3492    0.7260    0.0000 C   0  0  0  0  0  0  0  2  0  0  0  0
   -0.6348    1.1385    0.0000 C   0  0  0  0  0  0  0  2  0  0  0  0
  1  2  4  0        0
  2  3  4  0        0
  3  4  4  0        0
  4  5  1  0        0
  4  6  4  0        0
  1  6  4  0        0
  6  7  4  0        0
  7  8  4  0        0
  8  9  4  0        0
  9 10  4  0        0
  1 10  4  0        0
M  END
>  <CAS RN>
1455181

>  <SMILES>
c12scc(C)c1cccc2

>  <Measured or Estimated Log10(mmol/L)>
-1.755953971

$$$$

CDXL12

 14 13  0  0  0  0  0  0  0  0999 V2000
    0.0000   -0.8250    0.0000 Sn  0  0  0  0  0  0  0  2  0  0  0  0
    0.0000   -1.6500    0.0000 Cl  0  0  0  0  0  0  0  2  0  0  0  0
    0.7145   -1.2375    0.0000 C   0  0  0  0  0  0  0  2  0  0  0  0
    1.4289   -0.8250    0.0000 C   0  0  0  0  0  0  0  2  0  0  0  0
    2.1434   -1.2375    0.0000 C   0  0  0  0  0  0  0  2  0  0  0  0
    2.8579   -0.8250    0.0000 C   0  0  0  0  0  0  0  2  0  0  0  0
   -0.7145   -1.2375    0.0000 C   0  0  0  0  0  0  0  2  0  0  0  0
   -1.4289   -0.8250    0.0000 C   0  0  0  0  0  0  0  2  0  0  0  0
   -2.1434   -1.2375    0.0000 C   0  0  0  0  0  0  0  2  0  0  0  0
   -2.8579   -0.8250    0.0000 C   0  0  0  0  0  0  0  2  0  0  0  0
    0.0000    0.0000    0.0000 C   0  0  0  0  0  0  0  2  0  0  0  0
    0.7145    0.4125    0.0000 C   0  0  0  0  0  0  0  2  0  0  0  0
    0.7145    1.2375    0.0000 C   0  0  0  0  0  0  0  2  0  0  0  0
    1.4289    1.6500    0.0000 C   0  0  0  0  0  0  0  2  0  0  0  0
  1  2  1  0        0
  1  3  1  0        0
  3  4  1  0        0
  4  5  1  0        0
  5  6  1  0        0
  1  7  1  0        0
  7  8  1  0        0
  8  9  1  0        0
  9 10  1  0        0
  1 11  1  0        0
 11 12  1  0        0
 12 13  1  0        0
 13 14  1  0        0
M  END
>  <CAS RN>
1461229

>  <SMILES>
[Sn](Cl)(CCCC)(CCCC)CCCC

>  <Measured or Estimated Log10(mmol/L)>
-4.81356898

$$$$

CDXL12

 17 16  0  0  0  0  0  0  0  0999 V2000
    2.8579   -0.0000    0.0000 C   0  0  0  0  0  0  0  2  0  0  0  0
    2.1434   -0.4125    0.0000 C   0  0  0  0  0  0  0  2  0  0  0  0
    1.4289    0.0000    0.0000 C   0  0  0  0  0  0  0  2  0  0  0  0
    0.7145   -0.4125    0.0000 C   0  0  0  0  0  0  0  2  0  0  0  0
    0.0000   -0.0000    0.0000 Sn  0  0  0  0  0  0  0  2  0  0  0  0
    0.4125    0.7145    0.0000 C   0  0  0  0  0  0  0  2  0  0  0  0
    1.2375    0.7145    0.0000 C   0  0  0  0  0  0  0  2  0  0  0  0
    1.6500    1.4289    0.0000 C   0  0  0  0  0  0  0  2  0  0  0  0
    2.4750    1.4289    0.0000 C   0  0  0  0  0  0  0  2  0  0  0  0
   -0.7145    0.4125    0.0000 C   0  0  0  0  0  0  0  2  0  0  0  0
   -1.4289   -0.0000    0.0000 C   0  0  0  0  0  0  0  2  0  0  0  0
   -2.1434    0.4125    0.0000 C   0  0  0  0  0  0  0  2  0  0  0  0
   -2.8579   -0.0000    0.0000 C   0  0  0  0  0  0  0  2  0  0  0  0
   -0.4125   -0.7145    0.0000 C   0  0  0  0  0  0  0  2  0  0  0  0
   -1.2375   -0.7145    0.0000 C   0  0  0  0  0  0  0  2  0  0  0  0
   -1.6500   -1.4289    0.0000 C   0  0  0  0  0  0  0  2  0  0  0  0
   -2.4750   -1.4289    0.0000 C   0  0  0  0  0  0  0  2  0  0  0  0
  1  2  1  0        0
  2  3  1  0        0
  3  4  1  0        0
  4  5  1  0        0
  5  6  1  0        0
  6  7  1  0        0
  7  8  1  0        0
  8  9  1  0        0
  5 10  1  0        0
 10 11  1  0        0
 11 12  1  0        0
 12 13  1  0        0
  5 14  1  0        0
 14 15  1  0        0
 15 16  1  0        0
 16 17  1  0        0
M  END
>  <CAS RN>
1461252

>  <SMILES>
CCCC[Sn](CCCC)(CCCC)CCCC

>  <Measured or Estimated Log10(mmol/L)>
-2.751324613

$$$$

CDXL12

  8  7  0  0  0  0  0  0  0  0999 V2000
    0.7145   -0.6187    0.0000 N   0  0  0  0  0  0  0  2  0  0  0  0
   -0.0000   -0.2062    0.0000 C   0  0  0  0  0  0  0  2  0  0  0  0
   -0.7145   -0.6187    0.0000 C   0  0  0  0  0  0  0  2  0  0  0  0
   -1.4289   -0.2062    0.0000 C   0  0  0  0  0  0  0  2  0  0  0  0
   -2.1434   -0.6187    0.0000 C   0  0  0  0  0  0  0  2  0  0  0  0
    1.4289   -0.2062    0.0000 C   0  0  0  0  0  0  0  2  0  0  0  0
    2.1434   -0.6187    0.0000 N   0  0  0  0  0  0  0  2  0  0  0  0
    1.4289    0.6187    0.0000 S   0  0  0  0  0  0  0  2  0  0  0  0
  1  2  1  0        0
  2  3  1  0        0
  3  4  1  0        0
  4  5  1  0        0
  1  6  1  0        0
  6  7  1  0        0
  6  8  2  0        0
M  END
>  <CAS RN>
1516321

>  <SMILES>
N(CCCC)C(N)=S

>  <Measured or Estimated Log10(mmol/L)>
-0.849485107

$$$$

CDXL12

 10 10  0  0  0  0  0  0  0  0999 V2000
   -2.1434    0.8250    0.0000 F   0  0  0  0  0  0  0  2  0  0  0  0
   -1.4289    0.4125    0.0000 C   0  0  0  0  0  0  0  2  0  0  0  0
   -0.7145    0.8250    0.0000 C   0  0  0  0  0  0  0  2  0  0  0  0
    0.0000    0.4125    0.0000 C   0  0  0  0  0  0  0  2  0  0  0  0
    0.0000   -0.4125    0.0000 C   0  0  0  0  0  0  0  2  0  0  0  0
    0.7145   -0.8250    0.0000 N   0  0  0  0  0  0  0  2  0  0  0  0
    1.4289   -0.4125    0.0000 C   0  0  0  0  0  0  0  2  0  0  0  0
    2.1434    0.0000    0.0000 S   0  0  0  0  0  0  0  2  0  0  0  0
   -0.7145   -0.8250    0.0000 C   0  0  0  0  0  0  0  2  0  0  0  0
   -1.4289   -0.4125    0.0000 C   0  0  0  0  0  0  0  2  0  0  0  0
  1  2  1  0        0
  2  3  4  0        0
  3  4  4  0        0
  4  5  4  0        0
  5  6  1  0        0
  6  7  2  0        0
  7  8  2  0        0
  5  9  4  0        0
  9 10  4  0        0
  2 10  4  0        0
M  END
>  <CAS RN>
1544689

>  <SMILES>
Fc1ccc(N=C=S)cc1

>  <Measured or Estimated Log10(mmol/L)>
-2.42176839

$$$$

CDXL12

  9  9  0  0  0  0  0  0  0  0999 V2000
    1.4289    0.8250    0.0000 O   0  0  0  0  0  0  0  2  0  0  0  0
    0.7145    0.4125    0.0000 C   0  0  0  0  0  0  0  2  0  0  0  0
    0.7145   -0.4125    0.0000 C   0  0  0  0  0  0  0  2  0  0  0  0
    0.0000   -0.8250    0.0000 C   0  0  0  0  0  0  0  2  0  0  0  0
   -0.7145   -0.4125    0.0000 C   0  0  0  0  0  0  0  2  0  0  0  0
   -0.7145    0.4125    0.0000 C   0  0  0  0  0  0  0  2  0  0  0  0
    0.0000    0.8250    0.0000 C   0  0  0  0  0  0  0  2  0  0  0  0
   -1.4289   -0.8250    0.0000 Cl  0  0  0  0  0  0  0  2  0  0  0  0
    1.4289   -0.8250    0.0000 C   0  0  0  0  0  0  0  2  0  0  0  0
  1  2  1  0        0
  2  3  4  0        0
  3  4  4  0        0
  4  5  4  0        0
  5  6  4  0        0
  6  7  4  0        0
  2  7  4  0        0
  5  8  1  0        0
  3  9  1  0        0
M  END
>  <CAS RN>
1570645

>  <SMILES>
Oc1c(cc(cc1)Cl)C

>  <Measured or Estimated Log10(mmol/L)>
-2.691675842

$$$$

CDXL12

 10 10  0  0  0  0  0  0  0  0999 V2000
    1.4289    0.4125    0.0000 O   0  0  0  0  0  0  0  2  0  0  0  0
    0.7145    0.0000    0.0000 C   0  0  0  0  0  0  0  2  0  0  0  0
    0.7145   -0.8250    0.0000 C   0  0  0  0  0  0  0  2  0  0  0  0
    1.4289   -1.2375    0.0000 C   0  0  0  0  0  0  0  2  0  0  0  0
    0.0000   -1.2375    0.0000 C   0  0  0  0  0  0  0  2  0  0  0  0
   -0.7145   -0.8250    0.0000 C   0  0  0  0  0  0  0  2  0  0  0  0
   -1.4289   -1.2375    0.0000 Cl  0  0  0  0  0  0  0  2  0  0  0  0
   -0.7145    0.0000    0.0000 C   0  0  0  0  0  0  0  2  0  0  0  0
    0.0000    0.4125    0.0000 C   0  0  0  0  0  0  0  2  0  0  0  0
    0.0000    1.2375    0.0000 Cl  0  0  0  0  0  0  0  2  0  0  0  0
  1  2  1  0        0
  2  3  4  0        0
  3  4  1  0        0
  3  5  4  0        0
  5  6  4  0        0
  6  7  1  0        0
  6  8  4  0        0
  8  9  4  0        0
  2  9  4  0        0
  9 10  1  0        0
M  END
>  <CAS RN>
1570656

>  <SMILES>
Oc1c(C)cc(Cl)cc1Cl

>  <Measured or Estimated Log10(mmol/L)>
-2.614578414

$$$$

CDXL12

 23 23  0  0  0  0  0  0  0  0999 V2000
    1.4289    2.8875    0.0000 C   0  0  0  0  0  0  0  2  0  0  0  0
    0.7145    2.4750    0.0000 C   0  0  0  0  0  0  0  2  0  0  0  0
    0.7145    1.6500    0.0000 C   0  0  0  0  0  0  0  2  0  0  0  0
    0.0000    1.2375    0.0000 N   0  0  0  0  0  0  0  2  0  0  0  0
   -0.7145    1.6500    0.0000 C   0  0  0  0  0  0  0  2  0  0  0  0
   -0.7145    2.4750    0.0000 C   0  0  0  0  0  0  0  2  0  0  0  0
   -1.4289    2.8875    0.0000 C   0  0  0  0  0  0  0  2  0  0  0  0
    0.0000    0.4125    0.0000 C   0  0  0  0  0  0  0  2  0  0  0  0
    0.7145    0.0000    0.0000 C   0  0  0  0  0  0  0  2  0  0  0  0
    0.7145   -0.8250    0.0000 C   0  0  0  0  0  0  0  2  0  0  0  0
    0.0000   -1.2375    0.0000 C   0  0  0  0  0  0  0  2  0  0  0  0
   -0.7145   -0.8250    0.0000 C   0  0  0  0  0  0  0  2  0  0  0  0
   -0.7145    0.0000    0.0000 C   0  0  0  0  0  0  0  2  0  0  0  0
   -1.4289    0.4125    0.0000 N   0  0  0  0  0  0  0  2  0  0  0  0
   -1.4289    1.2375    0.0000 O   0  0  0  0  0  0  0  2  0  0  0  0
   -2.1434    0.0000    0.0000 O   0  0  0  0  0  0  0  2  0  0  0  0
    0.0000   -2.0625    0.0000 C   0  0  0  0  0  0  0  2  0  0  0  0
   -0.7145   -2.4750    0.0000 F   0  0  0  0  0  0  0  2  0  0  0  0
    0.0000   -2.8875    0.0000 F   0  0  0  0  0  0  0  2  0  0  0  0
    0.7145   -2.4750    0.0000 F   0  0  0  0  0  0  0  2  0  0  0  0
    1.4289    0.4125    0.0000 N   0  0  0  0  0  0  0  2  0  0  0  0
    1.4289    1.2375    0.0000 O   0  0  0  0  0  0  0  2  0  0  0  0
    2.1434    0.0000    0.0000 O   0  0  0  0  0  0  0  2  0  0  0  0
  1  2  1  0        0
  2  3  1  0        0
  3  4  1  0        0
  4  5  1  0        0
  5  6  1  0        0
  6  7  1  0        0
  4  8  1  0        0
  8  9  4  0        0
  9 10  4  0        0
 10 11  4  0        0
 11 12  4  0        0
 12 13  4  0        0
  8 13  4  0        0
 13 14  1  0        0
 14 15  2  0        0
 14 16  2  0        0
 11 17  1  0        0
 17 18  1  0        0
 17 19  1  0        0
 17 20  1  0        0
  9 21  1  0        0
 21 22  2  0        0
 21 23  2  0        0
M  END
>  <CAS RN>
1582098

>  <SMILES>
CCCN(CCC)c1c(cc(cc1N(=O)=O)C(F)(F)F)N(=O)=O

>  <Measured or Estimated Log10(mmol/L)>
-3.24

$$$$

CDXL12

 16 16  0  0  0  0  0  0  0  0999 V2000
    0.0000    1.0313    0.0000 O   0  0  0  0  0  0  0  2  0  0  0  0
    0.0000    0.2062    0.0000 C   0  0  0  0  0  0  0  2  0  0  0  0
   -0.7145   -0.2062    0.0000 N   0  0  0  0  0  0  0  2  0  0  0  0
   -0.7145   -1.0313    0.0000 C   0  0  0  0  0  0  0  2  0  0  0  0
    0.0000   -1.4438    0.0000 N   0  0  0  0  0  0  0  2  0  0  0  0
    0.7145   -1.0313    0.0000 C   0  0  0  0  0  0  0  2  0  0  0  0
    1.4289   -1.4438    0.0000 N   0  0  0  0  0  0  0  2  0  0  0  0
    2.1434   -1.0313    0.0000 C   0  0  0  0  0  0  0  2  0  0  0  0
    2.1434   -0.2062    0.0000 C   0  0  0  0  0  0  0  2  0  0  0  0
    2.8579   -1.4438    0.0000 C   0  0  0  0  0  0  0  2  0  0  0  0
    0.7145   -0.2063    0.0000 N   0  0  0  0  0  0  0  2  0  0  0  0
   -1.4289   -1.4438    0.0000 N   0  0  0  0  0  0  0  2  0  0  0  0
   -2.1434   -1.0313    0.0000 C   0  0  0  0  0  0  0  2  0  0  0  0
   -2.1434   -0.2062    0.0000 C   0  0  0  0  0  0  0  2  0  0  0  0
   -2.8579   -1.4438    0.0000 C   0  0  0  0  0  0  0  2  0  0  0  0
   -0.7145    1.4438    0.0000 C   0  0  0  0  0  0  0  2  0  0  0  0
  1  2  1  0        0
  2  3  4  0        0
  3  4  4  0        0
  4  5  4  0        0
  5  6  4  0        0
  6  7  1  0        0
  7  8  1  0        0
  8  9  1  0        0
  8 10  1  0        0
  6 11  4  0        0
  2 11  4  0        0
  4 12  1  0        0
 12 13  1  0        0
 13 14  1  0        0
 13 15  1  0        0
  1 16  1  0        0
M  END
>  <CAS RN>
1610180

>  <SMILES>
O(c1nc(nc(NC(C)C)n1)NC(C)C)C

>  <Measured or Estimated Log10(mmol/L)>
-1.133048805

$$$$

CDXL12

 11 11  0  0  0  0  0  0  0  0999 V2000
    1.7862    0.6188    0.0000 O   0  0  0  0  0  0  0  2  0  0  0  0
    1.0717    0.2063    0.0000 C   0  0  0  0  0  0  0  2  0  0  0  0
    0.3572    0.6188    0.0000 C   0  0  0  0  0  0  0  2  0  0  0  0
    0.3572    1.4437    0.0000 Br  0  0  0  0  0  0  0  2  0  0  0  0
   -0.3572    0.2063    0.0000 C   0  0  0  0  0  0  0  2  0  0  0  0
   -0.3572   -0.6187    0.0000 C   0  0  0  0  0  0  0  2  0  0  0  0
   -1.0717   -1.0312    0.0000 C   0  0  0  0  0  0  0  2  0  0  0  0
   -1.7862   -1.4437    0.0000 N   0  0  0  0  0  0  0  2  0  0  0  0
    0.3572   -1.0312    0.0000 C   0  0  0  0  0  0  0  2  0  0  0  0
    1.0717   -0.6187    0.0000 C   0  0  0  0  0  0  0  2  0  0  0  0
    1.7862   -1.0312    0.0000 Br  0  0  0  0  0  0  0  2  0  0  0  0
  1  2  1  0        0
  2  3  4  0        0
  3  4  1  0        0
  3  5  4  0        0
  5  6  4  0        0
  6  7  1  0        0
  7  8  3  0        0
  6  9  4  0        0
  9 10  4  0        0
  2 10  4  0        0
 10 11  1  0        0
M  END
>  <CAS RN>
1689845

>  <SMILES>
Oc1c(Br)cc(C#N)cc1Br

>  <Measured or Estimated Log10(mmol/L)>
-2.661211335

$$$$

CDXL12

  5  4  0  0  0  0  0  0  0  0999 V2000
   -0.8250   -0.0000    0.0000 C   0  0  0  0  0  0  0  2  0  0  0  0
    0.0000   -0.0000    0.0000 C   0  0  0  0  0  0  0  2  0  0  0  0
    0.0000   -0.8250    0.0000 F   0  0  0  0  0  0  0  2  0  0  0  0
    0.8250   -0.0000    0.0000 Cl  0  0  0  0  0  0  0  2  0  0  0  0
    0.0000    0.8250    0.0000 Cl  0  0  0  0  0  0  0  2  0  0  0  0
  1  2  1  0        0
  2  3  1  0        0
  2  4  1  0        0
  2  5  1  0        0
M  END
>  <CAS RN>
1717006

>  <SMILES>
CC(F)(Cl)Cl

>  <Measured or Estimated Log10(mmol/L)>
-0.576638521

$$$$

CDXL12

 13 13  0  0  0  0  0  0  0  0999 V2000
   -0.7145   -0.2062    0.0000 N   0  0  0  0  0  0  0  2  0  0  0  0
    0.0000    0.2062    0.0000 C   0  0  0  0  0  0  0  2  0  0  0  0
    0.0000    1.0313    0.0000 N   0  0  0  0  0  0  0  2  0  0  0  0
   -0.7145    1.4437    0.0000 C   0  0  0  0  0  0  0  2  0  0  0  0
   -1.4289    1.0313    0.0000 C   0  0  0  0  0  0  0  2  0  0  0  0
    0.7145    1.4438    0.0000 C   0  0  0  0  0  0  0  2  0  0  0  0
    1.4289    1.0313    0.0000 C   0  0  0  0  0  0  0  2  0  0  0  0
    0.7145   -0.2062    0.0000 N   0  0  0  0  0  0  0  2  0  0  0  0
    0.7145   -1.0313    0.0000 C   0  0  0  0  0  0  0  2  0  0  0  0
    1.4289   -1.4438    0.0000 Cl  0  0  0  0  0  0  0  2  0  0  0  0
    0.0000   -1.4438    0.0000 N   0  0  0  0  0  0  0  2  0  0  0  0
   -0.7145   -1.0312    0.0000 C   0  0  0  0  0  0  0  2  0  0  0  0
   -1.4289   -1.4437    0.0000 Cl  0  0  0  0  0  0  0  2  0  0  0  0
  1  2  4  0        0
  2  3  1  0        0
  3  4  1  0        0
  4  5  1  0        0
  3  6  1  0        0
  6  7  1  0        0
  2  8  4  0        0
  8  9  4  0        0
  9 10  1  0        0
  9 11  4  0        0
 11 12  4  0        0
  1 12  4  0        0
 12 13  1  0        0
M  END
>  <CAS RN>
1722196

>  <SMILES>
n1c(N(CC)CC)nc(Cl)nc1Cl

>  <Measured or Estimated Log10(mmol/L)>
-2.261308092

$$$$

CDXL12

 10 10  0  0  0  0  0  0  0  0999 V2000
    0.3572    0.8250    0.0000 O   0  0  0  0  0  0  0  2  0  0  0  0
   -0.3572    0.4125    0.0000 C   0  0  0  0  0  0  0  2  0  0  0  0
   -0.3572   -0.4125    0.0000 C   0  0  0  0  0  0  0  2  0  0  0  0
   -1.0717   -0.8250    0.0000 C   0  0  0  0  0  0  0  2  0  0  0  0
   -1.7862   -0.4125    0.0000 C   0  0  0  0  0  0  0  2  0  0  0  0
   -1.7862    0.4125    0.0000 C   0  0  0  0  0  0  0  2  0  0  0  0
   -1.0717    0.8250    0.0000 C   0  0  0  0  0  0  0  2  0  0  0  0
    0.3572   -0.8250    0.0000 C   0  0  0  0  0  0  0  2  0  0  0  0
    1.0717   -0.4125    0.0000 C   0  0  0  0  0  0  0  2  0  0  0  0
    1.7862   -0.8250    0.0000 C   0  0  0  0  0  0  0  2  0  0  0  0
  1  2  1  0        0
  2  3  4  0        0
  3  4  4  0        0
  4  5  4  0        0
  5  6  4  0        0
  6  7  4  0        0
  2  7  4  0        0
  3  8  1  0        0
  8  9  1  0        0
  9 10  2  0        0
M  END
>  <CAS RN>
1745819

>  <SMILES>
Oc1c(cccc1)CC=C

>  <Measured or Estimated Log10(mmol/L)>
-1.134245074

$$$$

CDXL12

 14 14  0  0  0  0  0  0  0  0999 V2000
   -0.7145    0.8250    0.0000 O   0  0  0  0  0  0  0  2  0  0  0  0
   -0.7145    0.0000    0.0000 C   0  0  0  0  0  0  0  2  0  0  0  0
   -1.4289   -0.4125    0.0000 N   0  0  0  0  0  0  0  2  0  0  0  0
   -2.1434    0.0000    0.0000 O   0  0  0  0  0  0  0  2  0  0  0  0
   -2.8579   -0.4125    0.0000 C   0  0  0  0  0  0  0  2  0  0  0  0
   -1.4289   -1.2375    0.0000 C   0  0  0  0  0  0  0  2  0  0  0  0
    0.0000   -0.4125    0.0000 N   0  0  0  0  0  0  0  2  0  0  0  0
    0.7145    0.0000    0.0000 C   0  0  0  0  0  0  0  2  0  0  0  0
    0.7145    0.8250    0.0000 C   0  0  0  0  0  0  0  2  0  0  0  0
    1.4289    1.2375    0.0000 C   0  0  0  0  0  0  0  2  0  0  0  0
    2.1434    0.8250    0.0000 C   0  0  0  0  0  0  0  2  0  0  0  0
    2.1434    0.0000    0.0000 C   0  0  0  0  0  0  0  2  0  0  0  0
    1.4289   -0.4125    0.0000 C   0  0  0  0  0  0  0  2  0  0  0  0
    2.8579    1.2375    0.0000 Cl  0  0  0  0  0  0  0  2  0  0  0  0
  1  2  2  0        0
  2  3  1  0        0
  3  4  1  0        0
  4  5  1  0        0
  3  6  1  0        0
  2  7  1  0        0
  7  8  1  0        0
  8  9  4  0        0
  9 10  4  0        0
 10 11  4  0        0
 11 12  4  0        0
 12 13  4  0        0
  8 13  4  0        0
 11 14  1  0        0
M  END
>  <CAS RN>
1746812

>  <SMILES>
O=C(N(OC)C)Nc1ccc(cc1)Cl

>  <Measured or Estimated Log10(mmol/L)>
-1.647204962

$$$$

CDXL12

 19 20  0  0  0  0  0  0  0  0999 V2000
   -3.2151   -0.8250    0.0000 Cl  0  0  0  0  0  0  0  2  0  0  0  0
   -2.5006   -0.4125    0.0000 C   0  0  0  0  0  0  0  2  0  0  0  0
   -2.5006    0.4125    0.0000 C   0  0  0  0  0  0  0  2  0  0  0  0
   -1.7862    0.8250    0.0000 C   0  0  0  0  0  0  0  2  0  0  0  0
   -1.7862    1.6500    0.0000 Cl  0  0  0  0  0  0  0  2  0  0  0  0
   -1.0717    0.4125    0.0000 C   0  0  0  0  0  0  0  2  0  0  0  0
   -0.3572    0.8250    0.0000 O   0  0  0  0  0  0  0  2  0  0  0  0
    0.3572    0.4125    0.0000 C   0  0  0  0  0  0  0  2  0  0  0  0
    1.0717    0.8250    0.0000 C   0  0  0  0  0  0  0  2  0  0  0  0
    1.7862    0.4125    0.0000 C   0  0  0  0  0  0  0  2  0  0  0  0
    1.7862   -0.4125    0.0000 C   0  0  0  0  0  0  0  2  0  0  0  0
    1.0717   -0.8250    0.0000 C   0  0  0  0  0  0  0  2  0  0  0  0
    0.3572   -0.4125    0.0000 C   0  0  0  0  0  0  0  2  0  0  0  0
    2.5006   -0.8250    0.0000 N   0  0  0  0  0  0  0  2  0  0  0  0
    2.5006   -1.6500    0.0000 O   0  0  0  0  0  0  0  2  0  0  0  0
    3.2151   -0.4125    0.0000 O   0  0  0  0  0  0  0  2  0  0  0  0
   -1.0717   -0.4125    0.0000 C   0  0  0  0  0  0  0  2  0  0  0  0
   -0.3572   -0.8250    0.0000 Cl  0  0  0  0  0  0  0  2  0  0  0  0
   -1.7862   -0.8250    0.0000 C   0  0  0  0  0  0  0  2  0  0  0  0
  1  2  1  0        0
  2  3  4  0        0
  3  4  4  0        0
  4  5  1  0        0
  4  6  4  0        0
  6  7  1  0        0
  7  8  1  0        0
  8  9  4  0        0
  9 10  4  0        0
 10 11  4  0        0
 11 12  4  0        0
 12 13  4  0        0
  8 13  4  0        0
 11 14  1  0        0
 14 15  2  0        0
 14 16  2  0        0
  6 17  4  0        0
 17 18  1  0        0
 17 19  4  0        0
  2 19  4  0        0
M  END
>  <CAS RN>
1836777

>  <SMILES>
Clc1cc(Cl)c(Oc2ccc(cc2)N(=O)=O)c(Cl)c1

>  <Measured or Estimated Log10(mmol/L)>
-2.875802209

$$$$

CDXL12

 14 14  0  0  0  0  0  0  0  0999 V2000
   -2.1434   -1.2375    0.0000 N   0  0  0  0  0  0  0  2  0  0  0  0
   -1.4289   -0.8250    0.0000 C   0  0  0  0  0  0  0  2  0  0  0  0
   -0.7145   -0.4125    0.0000 C   0  0  0  0  0  0  0  2  0  0  0  0
   -0.7145    0.4125    0.0000 C   0  0  0  0  0  0  0  2  0  0  0  0
    0.0000    0.8250    0.0000 C   0  0  0  0  0  0  0  2  0  0  0  0
    0.7145    0.4125    0.0000 C   0  0  0  0  0  0  0  2  0  0  0  0
    0.7145   -0.4125    0.0000 C   0  0  0  0  0  0  0  2  0  0  0  0
    1.4289   -0.8250    0.0000 C   0  0  0  0  0  0  0  2  0  0  0  0
    2.1434   -1.2375    0.0000 N   0  0  0  0  0  0  0  2  0  0  0  0
    0.0000   -0.8250    0.0000 C   0  0  0  0  0  0  0  2  0  0  0  0
    0.0000   -1.6500    0.0000 Cl  0  0  0  0  0  0  0  2  0  0  0  0
    1.4289    0.8250    0.0000 Cl  0  0  0  0  0  0  0  2  0  0  0  0
    0.0000    1.6500    0.0000 Cl  0  0  0  0  0  0  0  2  0  0  0  0
   -1.4289    0.8250    0.0000 Cl  0  0  0  0  0  0  0  2  0  0  0  0
  1  2  3  0        0
  2  3  1  0        0
  3  4  4  0        0
  4  5  4  0        0
  5  6  4  0        0
  6  7  4  0        0
  7  8  1  0        0
  8  9  3  0        0
  7 10  4  0        0
  3 10  4  0        0
 10 11  1  0        0
  6 12  1  0        0
  5 13  1  0        0
  4 14  1  0        0
M  END
>  <CAS RN>
1897456

>  <SMILES>
N#Cc1c(c(c(c(C#N)c1Cl)Cl)Cl)Cl

>  <Measured or Estimated Log10(mmol/L)>
-3.205943205

$$$$

CDXL12

 16 17  0  0  0  0  0  0  0  0999 V2000
    2.6112    1.0313    0.0000 C   0  0  0  0  0  0  0  2  0  0  0  0
    1.7862    1.0313    0.0000 N   0  0  0  0  0  0  0  2  0  0  0  0
    2.1987    1.7457    0.0000 Cl  0  0  0  0  0  0  0  2  0  0  0  0
    1.7862    0.2062    0.0000 C   0  0  0  0  0  0  0  2  0  0  0  0
    1.0717   -0.2062    0.0000 C   0  0  0  0  0  0  0  2  0  0  0  0
    0.3572    0.2062    0.0000 C   0  0  0  0  0  0  0  2  0  0  0  0
    0.3572    1.0313    0.0000 C   0  0  0  0  0  0  0  2  0  0  0  0
    1.0717    1.4438    0.0000 C   0  0  0  0  0  0  0  2  0  0  0  0
   -0.3572   -0.2062    0.0000 C   0  0  0  0  0  0  0  2  0  0  0  0
   -0.3572   -1.0312    0.0000 C   0  0  0  0  0  0  0  2  0  0  0  0
   -1.0717   -1.4437    0.0000 C   0  0  0  0  0  0  0  2  0  0  0  0
   -1.7862   -1.0312    0.0000 N   0  0  0  0  0  0  0  2  0  0  0  0
   -2.6112   -1.0312    0.0000 Cl  0  0  0  0  0  0  0  2  0  0  0  0
   -2.1987   -1.7457    0.0000 C   0  0  0  0  0  0  0  2  0  0  0  0
   -1.7862   -0.2062    0.0000 C   0  0  0  0  0  0  0  2  0  0  0  0
   -1.0717    0.2062    0.0000 C   0  0  0  0  0  0  0  2  0  0  0  0
  1  2  1  0        0
  2  3  1  0        0
  2  4  1  0        0
  4  5  1  0        0
  5  6  1  0        0
  6  7  1  0        0
  7  8  1  0        0
  2  8  1  0        0
  6  9  1  0        0
  9 10  1  0        0
 10 11  1  0        0
 11 12  1  0        0
 12 13  1  0        0
 12 14  1  0        0
 12 15  1  0        0
 15 16  1  0        0
  9 16  1  0        0
M  END
>  <CAS RN>
1910425

>  <SMILES>
CN1(Cl)CCC(CC1)C1CCN(Cl)(C)CC1

>  <Measured or Estimated Log10(mmol/L)>
-1.858706239

$$$$

CDXL12

 14 14  0  0  0  0  0  0  0  0999 V2000
   -0.7145   -0.0000    0.0000 N   0  0  0  0  0  0  0  2  0  0  0  0
   -0.7145   -0.8250    0.0000 C   0  0  0  0  0  0  0  2  0  0  0  0
    0.0000   -1.2375    0.0000 N   0  0  0  0  0  0  0  2  0  0  0  0
    0.7145   -0.8250    0.0000 C   0  0  0  0  0  0  0  2  0  0  0  0
    0.7145   -0.0000    0.0000 N   0  0  0  0  0  0  0  2  0  0  0  0
    0.0000    0.4125    0.0000 C   0  0  0  0  0  0  0  2  0  0  0  0
    0.0000    1.2375    0.0000 Cl  0  0  0  0  0  0  0  2  0  0  0  0
    1.4289   -1.2375    0.0000 N   0  0  0  0  0  0  0  2  0  0  0  0
    2.1434   -0.8250    0.0000 C   0  0  0  0  0  0  0  2  0  0  0  0
    2.1434    0.0000    0.0000 C   0  0  0  0  0  0  0  2  0  0  0  0
    2.8579   -1.2375    0.0000 C   0  0  0  0  0  0  0  2  0  0  0  0
   -1.4289   -1.2375    0.0000 N   0  0  0  0  0  0  0  2  0  0  0  0
   -2.1434   -0.8250    0.0000 C   0  0  0  0  0  0  0  2  0  0  0  0
   -2.8579   -1.2375    0.0000 C   0  0  0  0  0  0  0  2  0  0  0  0
  1  2  4  0        0
  2  3  4  0        0
  3  4  4  0        0
  4  5  4  0        0
  5  6  4  0        0
  1  6  4  0        0
  6  7  1  0        0
  4  8  1  0        0
  8  9  1  0        0
  9 10  1  0        0
  9 11  1  0        0
  2 12  1  0        0
 12 13  1  0        0
 13 14  1  0        0
M  END
>  <CAS RN>
1912249

>  <SMILES>
n1c(nc(nc1Cl)NC(C)C)NCC

>  <Measured or Estimated Log10(mmol/L)>
-1.36069813

$$$$

CDXL12

 13 13  0  0  0  0  0  0  0  0999 V2000
   -0.3572   -1.6500    0.0000 N   0  0  0  0  0  0  0  2  0  0  0  0
   -0.3572   -0.8250    0.0000 C   0  0  0  0  0  0  0  2  0  0  0  0
   -1.0717   -0.4125    0.0000 C   0  0  0  0  0  0  0  2  0  0  0  0
   -1.7862   -0.8250    0.0000 Cl  0  0  0  0  0  0  0  2  0  0  0  0
   -1.0717    0.4125    0.0000 C   0  0  0  0  0  0  0  2  0  0  0  0
   -1.7862    0.8250    0.0000 Cl  0  0  0  0  0  0  0  2  0  0  0  0
   -0.3572    0.8250    0.0000 N   0  0  0  0  0  0  0  2  0  0  0  0
    0.3572    0.4125    0.0000 C   0  0  0  0  0  0  0  2  0  0  0  0
    1.0717    0.8250    0.0000 C   0  0  0  0  0  0  0  2  0  0  0  0
    1.7862    0.4125    0.0000 O   0  0  0  0  0  0  0  2  0  0  0  0
    1.0717    1.6500    0.0000 O   0  0  0  0  0  0  0  2  0  0  0  0
    0.3572   -0.4125    0.0000 C   0  0  0  0  0  0  0  2  0  0  0  0
    1.0717   -0.8250    0.0000 Cl  0  0  0  0  0  0  0  2  0  0  0  0
  1  2  1  0        0
  2  3  4  0        0
  3  4  1  0        0
  3  5  4  0        0
  5  6  1  0        0
  5  7  4  0        0
  7  8  4  0        0
  8  9  1  0        0
  9 10  1  0        0
  9 11  2  0        0
  8 12  4  0        0
  2 12  4  0        0
 12 13  1  0        0
M  END
>  <CAS RN>
1918021

>  <SMILES>
Nc1c(Cl)c(Cl)nc(C(O)=O)c1Cl

>  <Measured or Estimated Log10(mmol/L)>
-0.677839036

$$$$

CDXL12

 14 14  0  0  0  0  0  0  0  0999 V2000
    1.0717    1.8563    0.0000 C   0  0  0  0  0  0  0  2  0  0  0  0
    1.0717    1.0313    0.0000 C   0  0  0  0  0  0  0  2  0  0  0  0
    1.7862    0.6188    0.0000 C   0  0  0  0  0  0  0  2  0  0  0  0
    0.3572    0.6188    0.0000 N   0  0  0  0  0  0  0  2  0  0  0  0
   -0.3572    1.0312    0.0000 C   0  0  0  0  0  0  0  2  0  0  0  0
   -0.3572    1.8563    0.0000 O   0  0  0  0  0  0  0  2  0  0  0  0
   -1.0717    0.6188    0.0000 C   0  0  0  0  0  0  0  2  0  0  0  0
   -1.7862    1.0312    0.0000 Cl  0  0  0  0  0  0  0  2  0  0  0  0
    0.3572   -0.2062    0.0000 C   0  0  0  0  0  0  0  2  0  0  0  0
    1.0717   -0.6188    0.0000 C   0  0  0  0  0  0  0  2  0  0  0  0
    1.0717   -1.4438    0.0000 C   0  0  0  0  0  0  0  2  0  0  0  0
    0.3572   -1.8563    0.0000 C   0  0  0  0  0  0  0  2  0  0  0  0
   -0.3572   -1.4438    0.0000 C   0  0  0  0  0  0  0  2  0  0  0  0
   -0.3572   -0.6188    0.0000 C   0  0  0  0  0  0  0  2  0  0  0  0
  1  2  1  0        0
  2  3  1  0        0
  2  4  1  0        0
  4  5  1  0        0
  5  6  2  0        0
  5  7  1  0        0
  7  8  1  0        0
  4  9  1  0        0
  9 10  4  0        0
 10 11  4  0        0
 11 12  4  0        0
 12 13  4  0        0
 13 14  4  0        0
  9 14  4  0        0
M  END
>  <CAS RN>
1918167

>  <SMILES>
CC(C)N(C(=O)CCl)c1ccccc1

>  <Measured or Estimated Log10(mmol/L)>
-1.43

$$$$

CDXL12

 20 21  0  0  0  0  0  0  0  0999 V2000
   -3.2151   -1.2375    0.0000 C   0  0  0  0  0  0  0  2  0  0  0  0
   -3.2151   -0.4125    0.0000 N   0  0  0  0  0  0  0  2  0  0  0  0
   -3.9296   -0.0000    0.0000 C   0  0  0  0  0  0  0  2  0  0  0  0
   -2.5006   -0.0000    0.0000 C   0  0  0  0  0  0  0  2  0  0  0  0
   -2.5006    0.8250    0.0000 O   0  0  0  0  0  0  0  2  0  0  0  0
   -1.7862   -0.4125    0.0000 N   0  0  0  0  0  0  0  2  0  0  0  0
   -1.0717   -0.0000    0.0000 C   0  0  0  0  0  0  0  2  0  0  0  0
   -1.0717    0.8250    0.0000 C   0  0  0  0  0  0  0  2  0  0  0  0
   -0.3572    1.2375    0.0000 C   0  0  0  0  0  0  0  2  0  0  0  0
    0.3572    0.8250    0.0000 C   0  0  0  0  0  0  0  2  0  0  0  0
    1.0717    1.2375    0.0000 O   0  0  0  0  0  0  0  2  0  0  0  0
    1.7862    0.8250    0.0000 C   0  0  0  0  0  0  0  2  0  0  0  0
    2.5006    1.2375    0.0000 C   0  0  0  0  0  0  0  2  0  0  0  0
    3.2151    0.8250    0.0000 C   0  0  0  0  0  0  0  2  0  0  0  0
    3.2151   -0.0000    0.0000 C   0  0  0  0  0  0  0  2  0  0  0  0
    3.9296   -0.4125    0.0000 Cl  0  0  0  0  0  0  0  2  0  0  0  0
    2.5006   -0.4125    0.0000 C   0  0  0  0  0  0  0  2  0  0  0  0
    1.7862   -0.0000    0.0000 C   0  0  0  0  0  0  0  2  0  0  0  0
    0.3572   -0.0000    0.0000 C   0  0  0  0  0  0  0  2  0  0  0  0
   -0.3572   -0.4125    0.0000 C   0  0  0  0  0  0  0  2  0  0  0  0
  1  2  1  0        0
  2  3  1  0        0
  2  4  1  0        0
  4  5  2  0        0
  4  6  1  0        0
  6  7  1  0        0
  7  8  4  0        0
  8  9  4  0        0
  9 10  4  0        0
 10 11  1  0        0
 11 12  1  0        0
 12 13  4  0        0
 13 14  4  0        0
 14 15  4  0        0
 15 16  1  0        0
 15 17  4  0        0
 17 18  4  0        0
 12 18  4  0        0
 10 19  4  0        0
 19 20  4  0        0
  7 20  4  0        0
M  END
>  <CAS RN>
1982474

>  <SMILES>
CN(C)C(=O)Nc1ccc(Oc2ccc(Cl)cc2)cc1

>  <Measured or Estimated Log10(mmol/L)>
-1.993697707

$$$$

CDXL12

 17 17  0  0  0  0  0  0  0  0999 V2000
   -1.7862   -0.4125    0.0000 C   0  0  0  0  0  0  0  2  0  0  0  0
   -2.5006    0.0000    0.0000 C   0  0  0  0  0  0  0  2  0  0  0  0
   -2.5006    0.8250    0.0000 C   0  0  0  0  0  0  0  2  0  0  0  0
   -3.2151    1.2375    0.0000 Cl  0  0  0  0  0  0  0  2  0  0  0  0
   -1.7862    1.2375    0.0000 C   0  0  0  0  0  0  0  2  0  0  0  0
   -1.0717    0.8250    0.0000 C   0  0  0  0  0  0  0  2  0  0  0  0
   -0.3572    1.2375    0.0000 Cl  0  0  0  0  0  0  0  2  0  0  0  0
   -1.0717   -0.0000    0.0000 C   0  0  0  0  0  0  0  2  0  0  0  0
   -0.3572   -0.4125    0.0000 O   0  0  0  0  0  0  0  2  0  0  0  0
    0.3572    0.0000    0.0000 C   0  0  0  0  0  0  0  2  0  0  0  0
    1.0717   -0.4125    0.0000 C   0  0  0  0  0  0  0  2  0  0  0  0
    1.0717   -1.2375    0.0000 O   0  0  0  0  0  0  0  2  0  0  0  0
    1.7862   -0.0000    0.0000 O   0  0  0  0  0  0  0  2  0  0  0  0
    2.5006   -0.4125    0.0000 N   0  0  0  0  0  0  0  2  0  0  0  0
    2.5006   -1.2375    0.0000 C   0  0  0  0  0  0  0  2  0  0  0  0
    3.2151   -0.0000    0.0000 C   0  0  0  0  0  0  0  2  0  0  0  0
    3.2151   -0.8250    0.0000 H   0  0  0  0  0  0  0  2  0  0  0  0
  1  2  4  0        0
  2  3  4  0        0
  3  4  1  0        0
  3  5  4  0        0
  5  6  4  0        0
  6  7  1  0        0
  6  8  4  0        0
  1  8  4  0        0
  8  9  1  0        0
  9 10  1  0        0
 10 11  1  0        0
 11 12  2  0        0
 11 13  1  0        0
 13 14  1  0        0
 14 15  1  0        0
 14 16  1  0        0
 14 17  1  0        0
M  END
>  <CAS RN>
2008391

>  <SMILES>
c1cc(Cl)cc(Cl)c1OCC(=O)ON(C)(C)[H]

>  <Measured or Estimated Log10(mmol/L)>
-0.158618116

$$$$

CDXL12

 11 11  0  0  0  0  0  0  0  0999 V2000
    1.4289    0.0000    0.0000 N   0  0  0  0  0  0  0  2  0  0  0  0
    0.7145    0.4125    0.0000 C   0  0  0  0  0  0  0  2  0  0  0  0
    0.7145    1.2375    0.0000 O   0  0  0  0  0  0  0  2  0  0  0  0
   -0.0000    0.0000    0.0000 C   0  0  0  0  0  0  0  2  0  0  0  0
   -0.7145    0.4125    0.0000 C   0  0  0  0  0  0  0  2  0  0  0  0
   -0.7145    1.2375    0.0000 Cl  0  0  0  0  0  0  0  2  0  0  0  0
   -1.4289   -0.0000    0.0000 C   0  0  0  0  0  0  0  2  0  0  0  0
   -1.4289   -0.8250    0.0000 C   0  0  0  0  0  0  0  2  0  0  0  0
   -0.7145   -1.2375    0.0000 C   0  0  0  0  0  0  0  2  0  0  0  0
   -0.0000   -0.8250    0.0000 C   0  0  0  0  0  0  0  2  0  0  0  0
    0.7145   -1.2375    0.0000 Cl  0  0  0  0  0  0  0  2  0  0  0  0
  1  2  1  0        0
  2  3  2  0        0
  2  4  1  0        0
  4  5  4  0        0
  5  6  1  0        0
  5  7  4  0        0
  7  8  4  0        0
  8  9  4  0        0
  9 10  4  0        0
  4 10  4  0        0
 10 11  1  0        0
M  END
>  <CAS RN>
2008584

>  <SMILES>
NC(=O)c1c(Cl)cccc1Cl

>  <Measured or Estimated Log10(mmol/L)>
0.653653882

$$$$

CDXL12

 13 14  0  0  0  0  0  0  0  0999 V2000
    0.3572   -1.4438    0.0000 Cl  0  0  0  0  0  0  0  2  0  0  0  0
   -0.3572   -1.0313    0.0000 C   0  0  0  0  0  0  0  2  0  0  0  0
   -1.0717   -1.4437    0.0000 C   0  0  0  0  0  0  0  2  0  0  0  0
   -1.7862   -1.0313    0.0000 C   0  0  0  0  0  0  0  2  0  0  0  0
   -1.7862   -0.2062    0.0000 C   0  0  0  0  0  0  0  2  0  0  0  0
   -1.0717    0.2062    0.0000 C   0  0  0  0  0  0  0  2  0  0  0  0
   -0.3572   -0.2062    0.0000 C   0  0  0  0  0  0  0  2  0  0  0  0
    0.3572    0.2062    0.0000 C   0  0  0  0  0  0  0  2  0  0  0  0
    0.3572    1.0313    0.0000 C   0  0  0  0  0  0  0  2  0  0  0  0
    1.0717    1.4438    0.0000 C   0  0  0  0  0  0  0  2  0  0  0  0
    1.7862    1.0313    0.0000 C   0  0  0  0  0  0  0  2  0  0  0  0
    1.7862    0.2062    0.0000 C   0  0  0  0  0  0  0  2  0  0  0  0
    1.0717   -0.2062    0.0000 C   0  0  0  0  0  0  0  2  0  0  0  0
  1  2  1  0        0
  2  3  4  0        0
  3  4  4  0        0
  4  5  4  0        0
  5  6  4  0        0
  6  7  4  0        0
  2  7  4  0        0
  7  8  1  0        0
  8  9  4  0        0
  9 10  4  0        0
 10 11  4  0        0
 11 12  4  0        0
 12 13  4  0        0
  8 13  4  0        0
M  END
>  <CAS RN>
2051607

>  <SMILES>
Clc1ccccc1c1ccccc1

>  <Measured or Estimated Log10(mmol/L)>
-2.424414575

$$$$

CDXL12

 13 14  0  0  0  0  0  0  0  0999 V2000
    2.1434    0.2062    0.0000 Cl  0  0  0  0  0  0  0  2  0  0  0  0
    1.4289   -0.2063    0.0000 C   0  0  0  0  0  0  0  2  0  0  0  0
    1.4289   -1.0313    0.0000 C   0  0  0  0  0  0  0  2  0  0  0  0
    0.7145   -1.4437    0.0000 C   0  0  0  0  0  0  0  2  0  0  0  0
    0.0000   -1.0313    0.0000 C   0  0  0  0  0  0  0  2  0  0  0  0
    0.0000   -0.2063    0.0000 C   0  0  0  0  0  0  0  2  0  0  0  0
    0.7145    0.2062    0.0000 C   0  0  0  0  0  0  0  2  0  0  0  0
   -0.7145    0.2062    0.0000 C   0  0  0  0  0  0  0  2  0  0  0  0
   -1.4289   -0.2063    0.0000 C   0  0  0  0  0  0  0  2  0  0  0  0
   -2.1434    0.2062    0.0000 C   0  0  0  0  0  0  0  2  0  0  0  0
   -2.1434    1.0312    0.0000 C   0  0  0  0  0  0  0  2  0  0  0  0
   -1.4289    1.4437    0.0000 C   0  0  0  0  0  0  0  2  0  0  0  0
   -0.7145    1.0312    0.0000 C   0  0  0  0  0  0  0  2  0  0  0  0
  1  2  1  0        0
  2  3  4  0        0
  3  4  4  0        0
  4  5  4  0        0
  5  6  4  0        0
  6  7  4  0        0
  2  7  4  0        0
  6  8  1  0        0
  8  9  4  0        0
  9 10  4  0        0
 10 11  4  0        0
 11 12  4  0        0
 12 13  4  0        0
  8 13  4  0        0
M  END
>  <CAS RN>
2051618

>  <SMILES>
Clc1cccc(c1)c1ccccc1

>  <Measured or Estimated Log10(mmol/L)>
-2.642204468

$$$$

CDXL12

 13 14  0  0  0  0  0  0  0  0999 V2000
    2.1434    1.4437    0.0000 Cl  0  0  0  0  0  0  0  2  0  0  0  0
    1.4289    1.0312    0.0000 C   0  0  0  0  0  0  0  2  0  0  0  0
    1.4289    0.2062    0.0000 C   0  0  0  0  0  0  0  2  0  0  0  0
    0.7145   -0.2062    0.0000 C   0  0  0  0  0  0  0  2  0  0  0  0
    0.0000    0.2062    0.0000 C   0  0  0  0  0  0  0  2  0  0  0  0
    0.0000    1.0312    0.0000 C   0  0  0  0  0  0  0  2  0  0  0  0
    0.7145    1.4437    0.0000 C   0  0  0  0  0  0  0  2  0  0  0  0
   -0.7145   -0.2062    0.0000 C   0  0  0  0  0  0  0  2  0  0  0  0
   -0.7145   -1.0312    0.0000 C   0  0  0  0  0  0  0  2  0  0  0  0
   -1.4289   -1.4437    0.0000 C   0  0  0  0  0  0  0  2  0  0  0  0
   -2.1434   -1.0312    0.0000 C   0  0  0  0  0  0  0  2  0  0  0  0
   -2.1434   -0.2062    0.0000 C   0  0  0  0  0  0  0  2  0  0  0  0
   -1.4289    0.2062    0.0000 C   0  0  0  0  0  0  0  2  0  0  0  0
  1  2  1  0        0
  2  3  4  0        0
  3  4  4  0        0
  4  5  4  0        0
  5  6  4  0        0
  6  7  4  0        0
  2  7  4  0        0
  5  8  1  0        0
  8  9  4  0        0
  9 10  4  0        0
 10 11  4  0        0
 11 12  4  0        0
 12 13  4  0        0
  8 13  4  0        0
M  END
>  <CAS RN>
2051629

>  <SMILES>
Clc1ccc(cc1)c1ccccc1

>  <Measured or Estimated Log10(mmol/L)>
-2.652423634

$$$$

CDXL12

 21 22  0  0  0  0  0  0  0  0999 V2000
   -3.2151   -0.2062    0.0000 C   0  0  0  0  0  0  0  2  0  0  0  0
   -2.5006    0.2062    0.0000 C   0  0  0  0  0  0  0  2  0  0  0  0
   -1.7862   -0.2062    0.0000 O   0  0  0  0  0  0  0  2  0  0  0  0
   -1.0717    0.2062    0.0000 P   0  0  0  0  0  0  0  2  0  0  0  0
   -1.0717    1.0313    0.0000 S   0  0  0  0  0  0  0  2  0  0  0  0
   -0.3572   -0.2062    0.0000 O   0  0  0  0  0  0  0  2  0  0  0  0
    0.3572    0.2062    0.0000 C   0  0  0  0  0  0  0  2  0  0  0  0
    0.3572    1.0312    0.0000 C   0  0  0  0  0  0  0  2  0  0  0  0
    1.0717    1.4438    0.0000 C   0  0  0  0  0  0  0  2  0  0  0  0
    1.7862    1.0313    0.0000 C   0  0  0  0  0  0  0  2  0  0  0  0
    1.7862    0.2062    0.0000 C   0  0  0  0  0  0  0  2  0  0  0  0
    1.0717   -0.2062    0.0000 C   0  0  0  0  0  0  0  2  0  0  0  0
    2.5006    1.4438    0.0000 N   0  0  0  0  0  0  0  2  0  0  0  0
    2.5006    2.2687    0.0000 O   0  0  0  0  0  0  0  2  0  0  0  0
    3.2151    1.0313    0.0000 O   0  0  0  0  0  0  0  2  0  0  0  0
   -1.0717   -0.6188    0.0000 C   0  0  0  0  0  0  0  2  0  0  0  0
   -0.3572   -1.0313    0.0000 C   0  0  0  0  0  0  0  2  0  0  0  0
   -0.3572   -1.8563    0.0000 C   0  0  0  0  0  0  0  2  0  0  0  0
   -1.0717   -2.2687    0.0000 C   0  0  0  0  0  0  0  2  0  0  0  0
   -1.7862   -1.8562    0.0000 C   0  0  0  0  0  0  0  2  0  0  0  0
   -1.7862   -1.0313    0.0000 C   0  0  0  0  0  0  0  2  0  0  0  0
  1  2  1  0        0
  2  3  1  0        0
  3  4  1  0        0
  4  5  2  0        0
  4  6  1  0        0
  6  7  1  0        0
  7  8  4  0        0
  8  9  4  0        0
  9 10  4  0        0
 10 11  4  0        0
 11 12  4  0        0
  7 12  4  0        0
 10 13  1  0        0
 13 14  2  0        0
 13 15  2  0        0
  4 16  1  0        0
 16 17  4  0        0
 17 18  4  0        0
 18 19  4  0        0
 19 20  4  0        0
 20 21  4  0        0
 16 21  4  0        0
M  END
>  <CAS RN>
2104645

>  <SMILES>
CCOP(=S)(Oc1ccc(cc1)N(=O)=O)c1ccccc1

>  <Measured or Estimated Log10(mmol/L)>
-6.998083579

$$$$

CDXL12

 13 12  0  0  0  0  0  0  0  0999 V2000
    2.1434   -0.4125    0.0000 C   0  0  0  0  0  0  0  2  0  0  0  0
    1.4289    0.0000    0.0000 C   0  0  0  0  0  0  0  2  0  0  0  0
    0.7145   -0.4125    0.0000 C   0  0  0  0  0  0  0  2  0  0  0  0
    0.0000   -0.0000    0.0000 Sn  0  0  0  0  0  0  0  2  0  0  0  0
    0.4125    0.7145    0.0000 C   0  0  0  0  0  0  0  2  0  0  0  0
    1.2375    0.7145    0.0000 C   0  0  0  0  0  0  0  2  0  0  0  0
    1.6500    1.4289    0.0000 C   0  0  0  0  0  0  0  2  0  0  0  0
   -0.7145    0.4125    0.0000 C   0  0  0  0  0  0  0  2  0  0  0  0
   -1.4289   -0.0000    0.0000 C   0  0  0  0  0  0  0  2  0  0  0  0
   -2.1434    0.4125    0.0000 C   0  0  0  0  0  0  0  2  0  0  0  0
   -0.4125   -0.7145    0.0000 C   0  0  0  0  0  0  0  2  0  0  0  0
   -1.2375   -0.7145    0.0000 C   0  0  0  0  0  0  0  2  0  0  0  0
   -1.6500   -1.4289    0.0000 C   0  0  0  0  0  0  0  2  0  0  0  0
  1  2  1  0        0
  2  3  1  0        0
  3  4  1  0        0
  4  5  1  0        0
  5  6  1  0        0
  6  7  1  0        0
  4  8  1  0        0
  8  9  1  0        0
  9 10  1  0        0
  4 11  1  0        0
 11 12  1  0        0
 12 13  1  0        0
M  END
>  <CAS RN>
2176989

>  <SMILES>
CCC[Sn](CCC)(CCC)CCC

>  <Measured or Estimated Log10(mmol/L)>
-2.766371763

$$$$

CDXL12

 22 22  0  0  0  0  0  0  0  0999 V2000
    2.5006    0.4678    0.0000 C   0  0  0  0  0  0  0  2  0  0  0  0
    3.2151    0.8803    0.0000 C   0  0  0  0  0  0  0  2  0  0  0  0
    3.9296    0.4678    0.0000 C   0  0  0  0  0  0  0  2  0  0  0  0
    4.6441    0.8803    0.0000 S   0  0  0  0  0  0  0  2  0  0  0  0
    5.0566    0.1658    0.0000 O   0  0  0  0  0  0  0  2  0  0  0  0
    4.2316    1.5947    0.0000 O   0  0  0  0  0  0  0  2  0  0  0  0
    5.3585    1.2928    0.0000 O   0  0  0  0  0  0  0  2  0  0  0  0
    3.9296   -0.3572    0.0000 C   0  0  0  0  0  0  0  2  0  0  0  0
    3.2151   -0.7697    0.0000 C   0  0  0  0  0  0  0  2  0  0  0  0
    2.5006   -0.3572    0.0000 C   0  0  0  0  0  0  0  2  0  0  0  0
    1.7862   -0.7697    0.0000 C   0  0  0  0  0  0  0  2  0  0  0  0
    1.0717   -0.3572    0.0000 C   0  0  0  0  0  0  0  2  0  0  0  0
    0.3572   -0.7697    0.0000 C   0  0  0  0  0  0  0  2  0  0  0  0
   -0.3572   -0.3572    0.0000 C   0  0  0  0  0  0  0  2  0  0  0  0
   -1.0717   -0.7697    0.0000 C   0  0  0  0  0  0  0  2  0  0  0  0
   -1.7862   -0.3572    0.0000 C   0  0  0  0  0  0  0  2  0  0  0  0
   -2.5006   -0.7697    0.0000 C   0  0  0  0  0  0  0  2  0  0  0  0
   -3.2151   -0.3572    0.0000 C   0  0  0  0  0  0  0  2  0  0  0  0
   -3.9296   -0.7697    0.0000 C   0  0  0  0  0  0  0  2  0  0  0  0
   -4.6441   -0.3572    0.0000 C   0  0  0  0  0  0  0  2  0  0  0  0
   -5.3585   -0.7697    0.0000 C   0  0  0  0  0  0  0  2  0  0  0  0
    1.7862   -1.5947    0.0000 C   0  0  0  0  0  0  0  2  0  0  0  0
  1  2  4  0        0
  2  3  4  0        0
  3  4  1  0        0
  4  5  2  0        0
  4  6  2  0        0
  4  7  1  0        0
  3  8  4  0        0
  8  9  4  0        0
  9 10  4  0        0
  1 10  4  0        0
 10 11  1  0        0
 11 12  1  0        0
 12 13  1  0        0
 13 14  1  0        0
 14 15  1  0        0
 15 16  1  0        0
 16 17  1  0        0
 17 18  1  0        0
 18 19  1  0        0
 19 20  1  0        0
 20 21  1  0        0
 11 22  1  0        0
M  END
>  <CAS RN>
2211996

>  <SMILES>
c1cc(S(=O)(=O)O)ccc1C(CCCCCCCCCC)C

>  <Measured or Estimated Log10(mmol/L)>
-2.471854217

$$$$

CDXL12

 12 12  0  0  0  0  0  0  0  0999 V2000
    2.3146    0.0732    0.0000 C   0  0  0  0  0  0  0  2  0  0  0  0
    1.6002    0.4857    0.0000 C   0  0  0  0  0  0  0  2  0  0  0  0
    0.8857    0.0732    0.0000 S   0  0  0  0  0  0  0  2  0  0  0  0
    0.1712    0.4857    0.0000 C   0  0  0  0  0  0  0  2  0  0  0  0
    0.1712    1.3107    0.0000 O   0  0  0  0  0  0  0  2  0  0  0  0
   -0.5432    0.0732    0.0000 N   0  0  0  0  0  0  0  2  0  0  0  0
   -1.2249    0.5379    0.0000 C   0  0  0  0  0  0  0  2  0  0  0  0
   -2.0132    0.2947    0.0000 C   0  0  0  0  0  0  0  2  0  0  0  0
   -2.3146   -0.4732    0.0000 C   0  0  0  0  0  0  0  2  0  0  0  0
   -1.9021   -1.1877    0.0000 C   0  0  0  0  0  0  0  2  0  0  0  0
   -1.0864   -1.3107    0.0000 C   0  0  0  0  0  0  0  2  0  0  0  0
   -0.4816   -0.7495    0.0000 C   0  0  0  0  0  0  0  2  0  0  0  0
  1  2  1  0        0
  2  3  1  0        0
  3  4  1  0        0
  4  5  2  0        0
  4  6  1  0        0
  6  7  1  0        0
  7  8  1  0        0
  8  9  1  0        0
  9 10  1  0        0
 10 11  1  0        0
 11 12  1  0        0
  6 12  1  0        0
M  END
>  <CAS RN>
2212671

>  <SMILES>
CCSC(=O)N1CCCCCC1

>  <Measured or Estimated Log10(mmol/L)>
-1.397488107

$$$$

CDXL12

 11 11  0  0  0  0  0  0  0  0999 V2000
   -1.0717   -0.8250    0.0000 N   0  0  0  0  0  0  0  2  0  0  0  0
   -1.7862   -0.4125    0.0000 C   0  0  0  0  0  0  0  2  0  0  0  0
   -2.5006   -0.0000    0.0000 S   0  0  0  0  0  0  0  2  0  0  0  0
   -0.3572   -0.4125    0.0000 C   0  0  0  0  0  0  0  2  0  0  0  0
    0.3572   -0.8250    0.0000 C   0  0  0  0  0  0  0  2  0  0  0  0
    1.0717   -0.4125    0.0000 C   0  0  0  0  0  0  0  2  0  0  0  0
    1.0717    0.4125    0.0000 C   0  0  0  0  0  0  0  2  0  0  0  0
    1.7862    0.8250    0.0000 C   0  0  0  0  0  0  0  2  0  0  0  0
    2.5006    0.4125    0.0000 C   0  0  0  0  0  0  0  2  0  0  0  0
    2.5006   -0.4125    0.0000 C   0  0  0  0  0  0  0  2  0  0  0  0
    1.7862   -0.8250    0.0000 C   0  0  0  0  0  0  0  2  0  0  0  0
  1  2  2  0        0
  2  3  2  0        0
  1  4  1  0        0
  4  5  1  0        0
  5  6  1  0        0
  6  7  4  0        0
  7  8  4  0        0
  8  9  4  0        0
  9 10  4  0        0
 10 11  4  0        0
  6 11  4  0        0
M  END
>  <CAS RN>
2257092

>  <SMILES>
N(=C=S)CCc1ccccc1

>  <Measured or Estimated Log10(mmol/L)>
-3.098888555

$$$$

CDXL12

 11 10  0  0  0  0  0  0  0  0999 V2000
    0.0000   -1.4438    0.0000 Cl  0  0  0  0  0  0  0  2  0  0  0  0
    0.0000   -0.6188    0.0000 Sn  0  0  0  0  0  0  0  2  0  0  0  0
   -0.7145   -1.0313    0.0000 C   0  0  0  0  0  0  0  2  0  0  0  0
   -1.4289   -0.6188    0.0000 C   0  0  0  0  0  0  0  2  0  0  0  0
   -2.1434   -1.0313    0.0000 C   0  0  0  0  0  0  0  2  0  0  0  0
    0.7145   -1.0313    0.0000 C   0  0  0  0  0  0  0  2  0  0  0  0
    1.4289   -0.6188    0.0000 C   0  0  0  0  0  0  0  2  0  0  0  0
    2.1434   -1.0313    0.0000 C   0  0  0  0  0  0  0  2  0  0  0  0
    0.0000    0.2062    0.0000 C   0  0  0  0  0  0  0  2  0  0  0  0
    0.7145    0.6188    0.0000 C   0  0  0  0  0  0  0  2  0  0  0  0
    0.7145    1.4438    0.0000 C   0  0  0  0  0  0  0  2  0  0  0  0
  1  2  1  0        0
  2  3  1  0        0
  3  4  1  0        0
  4  5  1  0        0
  2  6  1  0        0
  6  7  1  0        0
  7  8  1  0        0
  2  9  1  0        0
  9 10  1  0        0
 10 11  1  0        0
M  END
>  <CAS RN>
2279767

>  <SMILES>
Cl[Sn](CCC)(CCC)CCC

>  <Measured or Estimated Log10(mmol/L)>
-4.320249235

$$$$

CDXL12

 16 15  0  0  0  0  0  0  0  0999 V2000
   -2.1434    1.2375    0.0000 C   0  0  0  0  0  0  0  2  0  0  0  0
   -2.1434    0.4125    0.0000 C   0  0  0  0  0  0  0  2  0  0  0  0
   -2.8579   -0.0000    0.0000 C   0  0  0  0  0  0  0  2  0  0  0  0
   -1.4289   -0.0000    0.0000 N   0  0  0  0  0  0  0  2  0  0  0  0
   -1.4289   -0.8250    0.0000 C   0  0  0  0  0  0  0  2  0  0  0  0
   -2.1434   -1.2375    0.0000 C   0  0  0  0  0  0  0  2  0  0  0  0
   -0.7145   -1.2375    0.0000 C   0  0  0  0  0  0  0  2  0  0  0  0
   -0.7145    0.4125    0.0000 C   0  0  0  0  0  0  0  2  0  0  0  0
   -0.7145    1.2375    0.0000 O   0  0  0  0  0  0  0  2  0  0  0  0
   -0.0000   -0.0000    0.0000 S   0  0  0  0  0  0  0  2  0  0  0  0
    0.7145    0.4125    0.0000 C   0  0  0  0  0  0  0  2  0  0  0  0
    1.4289   -0.0000    0.0000 C   0  0  0  0  0  0  0  2  0  0  0  0
    1.4289   -0.8250    0.0000 Cl  0  0  0  0  0  0  0  2  0  0  0  0
    2.1434    0.4125    0.0000 C   0  0  0  0  0  0  0  2  0  0  0  0
    2.8579   -0.0000    0.0000 Cl  0  0  0  0  0  0  0  2  0  0  0  0
    2.1434    1.2375    0.0000 Cl  0  0  0  0  0  0  0  2  0  0  0  0
  1  2  1  0        0
  2  3  1  0        0
  2  4  1  0        0
  4  5  1  0        0
  5  6  1  0        0
  5  7  1  0        0
  4  8  1  0        0
  8  9  2  0        0
  8 10  1  0        0
 10 11  1  0        0
 11 12  1  0        0
 12 13  1  0        0
 12 14  2  0        0
 14 15  1  0        0
 14 16  1  0        0
M  END
>  <CAS RN>
2303175

>  <SMILES>
CC(C)N(C(C)C)C(=O)SCC(Cl)=C(Cl)Cl

>  <Measured or Estimated Log10(mmol/L)>
-3.72795056

$$$$

CDXL12

 24 25  0  0  0  0  0  0  0  0999 V2000
    0.0000    2.6812    0.0000 C   0  0  0  0  0  0  0  2  0  0  0  0
    0.7145    2.2687    0.0000 C   0  0  0  0  0  0  0  2  0  0  0  0
    0.7145    3.0938    0.0000 C   0  0  0  0  0  0  0  2  0  0  0  0
    1.4289    2.6812    0.0000 C   0  0  0  0  0  0  0  2  0  0  0  0
    0.7145    1.4438    0.0000 C   0  0  0  0  0  0  0  2  0  0  0  0
    1.4289    1.0313    0.0000 C   0  0  0  0  0  0  0  2  0  0  0  0
    1.4289    0.2062    0.0000 C   0  0  0  0  0  0  0  2  0  0  0  0
    0.7145   -0.2062    0.0000 C   0  0  0  0  0  0  0  2  0  0  0  0
    0.7145   -1.0313    0.0000 O   0  0  0  0  0  0  0  2  0  0  0  0
    1.4289   -1.4438    0.0000 C   0  0  0  0  0  0  0  2  0  0  0  0
    2.1434   -1.0313    0.0000 C   0  0  0  0  0  0  0  2  0  0  0  0
    2.8579   -1.4438    0.0000 C   0  0  0  0  0  0  0  2  0  0  0  0
    2.8579   -2.2688    0.0000 C   0  0  0  0  0  0  0  2  0  0  0  0
    2.1434   -2.6812    0.0000 C   0  0  0  0  0  0  0  2  0  0  0  0
    1.4289   -2.2687    0.0000 C   0  0  0  0  0  0  0  2  0  0  0  0
    0.7145   -2.6812    0.0000 O   0  0  0  0  0  0  0  2  0  0  0  0
    0.0000   -2.2688    0.0000 S   0  0  0  0  0  0  0  2  0  0  0  0
    0.0000   -1.4438    0.0000 O   0  0  0  0  0  0  0  2  0  0  0  0
   -0.7145   -2.6812    0.0000 O   0  0  0  0  0  0  0  2  0  0  0  0
   -1.4289   -2.2688    0.0000 C   0  0  0  0  0  0  0  2  0  0  0  0
   -2.1434   -2.6812    0.0000 C   0  0  0  0  0  0  0  2  0  0  0  0
   -2.8579   -3.0938    0.0000 C   0  0  0  0  0  0  0  2  0  0  0  0
    0.0000    0.2062    0.0000 C   0  0  0  0  0  0  0  2  0  0  0  0
    0.0000    1.0313    0.0000 C   0  0  0  0  0  0  0  2  0  0  0  0
  1  2  1  0        0
  2  3  1  0        0
  2  4  1  0        0
  2  5  1  0        0
  5  6  4  0        0
  6  7  4  0        0
  7  8  4  0        0
  8  9  1  0        0
  9 10  1  0        0
 10 11  1  0        0
 11 12  1  0        0
 12 13  1  0        0
 13 14  1  0        0
 14 15  1  0        0
 10 15  1  0        0
 15 16  1  0        0
 16 17  1  0        0
 17 18  2  0        0
 17 19  1  0        0
 19 20  1  0        0
 20 21  1  0        0
 21 22  3  0        0
  8 23  4  0        0
 23 24  4  0        0
  5 24  4  0        0
M  END
>  <CAS RN>
2312358

>  <SMILES>
CC(C)(C)c1ccc(OC2CCCCC2OS(=O)OCC#C)cc1

>  <Measured or Estimated Log10(mmol/L)>
-3.58

$$$$

CDXL12

 17 16  0  0  0  0  0  0  0  0999 V2000
   -5.0013   -0.0000    0.0000 C   0  0  0  0  0  0  0  2  0  0  0  0
   -4.2868   -0.4125    0.0000 C   0  0  0  0  0  0  0  2  0  0  0  0
   -3.5724   -0.0000    0.0000 C   0  0  0  0  0  0  0  2  0  0  0  0
   -2.8579   -0.4125    0.0000 C   0  0  0  0  0  0  0  2  0  0  0  0
   -2.1434   -0.0000    0.0000 C   0  0  0  0  0  0  0  2  0  0  0  0
   -1.4289   -0.4125    0.0000 C   0  0  0  0  0  0  0  2  0  0  0  0
   -0.7145   -0.0000    0.0000 C   0  0  0  0  0  0  0  2  0  0  0  0
    0.0000   -0.4125    0.0000 C   0  0  0  0  0  0  0  2  0  0  0  0
    0.7145   -0.0000    0.0000 C   0  0  0  0  0  0  0  2  0  0  0  0
    1.4289   -0.4125    0.0000 C   0  0  0  0  0  0  0  2  0  0  0  0
    2.1434    0.0000    0.0000 C   0  0  0  0  0  0  0  2  0  0  0  0
    2.8579   -0.4125    0.0000 C   0  0  0  0  0  0  0  2  0  0  0  0
    3.5724   -0.0000    0.0000 S   0  0  0  0  0  0  0  2  0  0  0  0
    4.2868    0.4125    0.0000 O   0  0  0  0  0  0  0  2  0  0  0  0
    5.0013   -0.0000    0.0000 Na  0  0  0  0  0  0  0  2  0  0  0  0
    3.1599    0.7145    0.0000 O   0  0  0  0  0  0  0  2  0  0  0  0
    3.9849   -0.7145    0.0000 O   0  0  0  0  0  0  0  2  0  0  0  0
  1  2  1  0        0
  2  3  1  0        0
  3  4  1  0        0
  4  5  1  0        0
  5  6  1  0        0
  6  7  1  0        0
  7  8  1  0        0
  8  9  1  0        0
  9 10  1  0        0
 10 11  1  0        0
 11 12  1  0        0
 12 13  1  0        0
 13 14  1  0        0
 14 15  1  0        0
 13 16  2  0        0
 13 17  2  0        0
M  END
>  <CAS RN>
2386530

>  <SMILES>
CCCCCCCCCCCCS(O[Na])(=O)=O

>  <Measured or Estimated Log10(mmol/L)>
-1.527864142

$$$$

CDXL12

  9  8  0  0  0  0  0  0  0  0999 V2000
    2.1434   -0.0000    0.0000 Na  0  0  0  0  0  0  0  2  0  0  0  0
    1.4289    0.4125    0.0000 O   0  0  0  0  0  0  0  2  0  0  0  0
    0.7145    0.0000    0.0000 S   0  0  0  0  0  0  0  2  0  0  0  0
    1.1270   -0.7145    0.0000 O   0  0  0  0  0  0  0  2  0  0  0  0
    0.3020    0.7145    0.0000 O   0  0  0  0  0  0  0  2  0  0  0  0
    0.0000   -0.4125    0.0000 C   0  0  0  0  0  0  0  2  0  0  0  0
   -0.7145   -0.0000    0.0000 C   0  0  0  0  0  0  0  2  0  0  0  0
   -1.4289   -0.4125    0.0000 C   0  0  0  0  0  0  0  2  0  0  0  0
   -2.1434   -0.0000    0.0000 C   0  0  0  0  0  0  0  2  0  0  0  0
  1  2  1  0        0
  2  3  1  0        0
  3  4  2  0        0
  3  5  2  0        0
  3  6  1  0        0
  6  7  1  0        0
  7  8  1  0        0
  8  9  1  0        0
M  END
>  <CAS RN>
2386541

>  <SMILES>
[Na]OS(=O)(=O)CCCC

>  <Measured or Estimated Log10(mmol/L)>
1.698516946

$$$$

CDXL12

 16 18  0  0  0  0  0  0  0  0999 V2000
   -2.1434    1.0312    0.0000 C   0  0  0  0  0  0  0  2  0  0  0  0
   -2.1434    0.2062    0.0000 C   0  0  0  0  0  0  0  2  0  0  0  0
   -1.4289   -0.2062    0.0000 C   0  0  0  0  0  0  0  2  0  0  0  0
   -0.7145    0.2062    0.0000 C   0  0  0  0  0  0  0  2  0  0  0  0
    0.0000   -0.2062    0.0000 C   0  0  0  0  0  0  0  2  0  0  0  0
    0.0000   -1.0313    0.0000 O   0  0  0  0  0  0  0  2  0  0  0  0
    0.7145   -1.4438    0.0000 C   0  0  0  0  0  0  0  2  0  0  0  0
    0.7145    0.2063    0.0000 C   0  0  0  0  0  0  0  2  0  0  0  0
    1.4289   -0.2062    0.0000 C   0  0  0  0  0  0  0  2  0  0  0  0
    2.1434    0.2063    0.0000 C   0  0  0  0  0  0  0  2  0  0  0  0
    2.1434    1.0313    0.0000 C   0  0  0  0  0  0  0  2  0  0  0  0
    1.4289    1.4438    0.0000 C   0  0  0  0  0  0  0  2  0  0  0  0
    0.7145    1.0313    0.0000 C   0  0  0  0  0  0  0  2  0  0  0  0
    0.0000    1.4438    0.0000 C   0  0  0  0  0  0  0  2  0  0  0  0
   -0.7145    1.0312    0.0000 C   0  0  0  0  0  0  0  2  0  0  0  0
   -1.4289    1.4437    0.0000 C   0  0  0  0  0  0  0  2  0  0  0  0
  1  2  4  0        0
  2  3  4  0        0
  3  4  4  0        0
  4  5  4  0        0
  5  6  1  0        0
  6  7  1  0        0
  5  8  4  0        0
  8  9  4  0        0
  9 10  4  0        0
 10 11  4  0        0
 11 12  4  0        0
 12 13  4  0        0
  8 13  4  0        0
 13 14  4  0        0
 14 15  4  0        0
  4 15  4  0        0
 15 16  4  0        0
  1 16  4  0        0
M  END
>  <CAS RN>
2395962

>  <SMILES>
c1ccc2c(OC)c3ccccc3cc2c1

>  <Measured or Estimated Log10(mmol/L)>
-2.72

$$$$

CDXL12

 10 10  0  0  0  0  0  0  0  0999 V2000
    0.0000   -1.2375    0.0000 O   0  0  0  0  0  0  0  2  0  0  0  0
    0.0000   -0.4125    0.0000 C   0  0  0  0  0  0  0  2  0  0  0  0
   -0.7145   -0.0000    0.0000 C   0  0  0  0  0  0  0  2  0  0  0  0
   -0.7145    0.8250    0.0000 C   0  0  0  0  0  0  0  2  0  0  0  0
    0.0000    1.2375    0.0000 C   0  0  0  0  0  0  0  2  0  0  0  0
    0.7145    0.8250    0.0000 C   0  0  0  0  0  0  0  2  0  0  0  0
    1.4289    1.2375    0.0000 C   0  0  0  0  0  0  0  2  0  0  0  0
    0.7145   -0.0000    0.0000 C   0  0  0  0  0  0  0  2  0  0  0  0
    1.4289   -0.4125    0.0000 C   0  0  0  0  0  0  0  2  0  0  0  0
   -1.4289   -0.4125    0.0000 C   0  0  0  0  0  0  0  2  0  0  0  0
  1  2  1  0        0
  2  3  4  0        0
  3  4  4  0        0
  4  5  4  0        0
  5  6  4  0        0
  6  7  1  0        0
  6  8  4  0        0
  2  8  4  0        0
  8  9  1  0        0
  3 10  1  0        0
M  END
>  <CAS RN>
2416946

>  <SMILES>
Oc1c(ccc(C)c1C)C

>  <Measured or Estimated Log10(mmol/L)>
-0.85

$$$$

CDXL12

 16 17  0  0  0  0  0  0  0  0999 V2000
   -2.5006   -1.4437    0.0000 Cl  0  0  0  0  0  0  0  2  0  0  0  0
   -1.7862   -1.0312    0.0000 C   0  0  0  0  0  0  0  2  0  0  0  0
   -1.7862   -0.2062    0.0000 C   0  0  0  0  0  0  0  2  0  0  0  0
   -1.0717    0.2063    0.0000 C   0  0  0  0  0  0  0  2  0  0  0  0
   -0.3572   -0.2063    0.0000 C   0  0  0  0  0  0  0  2  0  0  0  0
   -0.3572   -1.0312    0.0000 C   0  0  0  0  0  0  0  2  0  0  0  0
    0.3572   -1.4437    0.0000 Cl  0  0  0  0  0  0  0  2  0  0  0  0
   -1.0717   -1.4437    0.0000 C   0  0  0  0  0  0  0  2  0  0  0  0
    0.3572    0.2062    0.0000 C   0  0  0  0  0  0  0  2  0  0  0  0
    1.0717   -0.2063    0.0000 C   0  0  0  0  0  0  0  2  0  0  0  0
    1.7862    0.2062    0.0000 C   0  0  0  0  0  0  0  2  0  0  0  0
    1.7862    1.0312    0.0000 C   0  0  0  0  0  0  0  2  0  0  0  0
    2.5006    1.4437    0.0000 Cl  0  0  0  0  0  0  0  2  0  0  0  0
    1.0717    1.4437    0.0000 C   0  0  0  0  0  0  0  2  0  0  0  0
    0.3572    1.0312    0.0000 C   0  0  0  0  0  0  0  2  0  0  0  0
   -0.3572    1.4437    0.0000 Cl  0  0  0  0  0  0  0  2  0  0  0  0
  1  2  1  0        0
  2  3  4  0        0
  3  4  4  0        0
  4  5  4  0        0
  5  6  4  0        0
  6  7  1  0        0
  6  8  4  0        0
  2  8  4  0        0
  5  9  1  0        0
  9 10  4  0        0
 10 11  4  0        0
 11 12  4  0        0
 12 13  1  0        0
 12 14  4  0        0
 14 15  4  0        0
  9 15  4  0        0
 15 16  1  0        0
M  END
>  <CAS RN>
2437798

>  <SMILES>
Clc1ccc(c(Cl)c1)c1ccc(Cl)cc1Cl

>  <Measured or Estimated Log10(mmol/L)>
-3.988249698

$$$$

CDXL12

 22 21  0  0  0  0  0  0  0  0999 V2000
    6.0730   -0.2063    0.0000 C   0  0  0  0  0  0  0  2  0  0  0  0
    5.3585    0.2062    0.0000 C   0  0  0  0  0  0  0  2  0  0  0  0
    4.6441   -0.2063    0.0000 C   0  0  0  0  0  0  0  2  0  0  0  0
    3.9296    0.2062    0.0000 C   0  0  0  0  0  0  0  2  0  0  0  0
    3.2151   -0.2063    0.0000 C   0  0  0  0  0  0  0  2  0  0  0  0
    2.5006    0.2062    0.0000 C   0  0  0  0  0  0  0  2  0  0  0  0
    1.7862   -0.2063    0.0000 C   0  0  0  0  0  0  0  2  0  0  0  0
    1.0717    0.2062    0.0000 C   0  0  0  0  0  0  0  2  0  0  0  0
    0.3572   -0.2063    0.0000 C   0  0  0  0  0  0  0  2  0  0  0  0
   -0.3572    0.2062    0.0000 C   0  0  0  0  0  0  0  2  0  0  0  0
   -1.0717   -0.2063    0.0000 C   0  0  0  0  0  0  0  2  0  0  0  0
   -1.7862    0.2062    0.0000 C   0  0  0  0  0  0  0  2  0  0  0  0
   -2.5006   -0.2063    0.0000 N   0  0  0  0  0  0  0  2  0  0  0  0
   -3.2151    0.2062    0.0000 C   0  0  0  0  0  0  0  2  0  0  0  0
   -3.2151    1.0312    0.0000 N   0  0  0  0  0  0  0  2  0  0  0  0
   -3.9296   -0.2063    0.0000 N   0  0  0  0  0  0  0  2  0  0  0  0
   -4.3421   -0.9207    0.0000 H   0  0  0  0  0  0  0  2  0  0  0  0
   -3.5171   -0.9207    0.0000 H   0  0  0  0  0  0  0  2  0  0  0  0
   -4.6441    0.2062    0.0000 O   0  0  0  0  0  0  0  2  0  0  0  0
   -5.3585   -0.2063    0.0000 C   0  0  0  0  0  0  0  2  0  0  0  0
   -5.3585   -1.0312    0.0000 O   0  0  0  0  0  0  0  2  0  0  0  0
   -6.0730    0.2062    0.0000 C   0  0  0  0  0  0  0  2  0  0  0  0
  1  2  1  0        0
  2  3  1  0        0
  3  4  1  0        0
  4  5  1  0        0
  5  6  1  0        0
  6  7  1  0        0
  7  8  1  0        0
  8  9  1  0        0
  9 10  1  0        0
 10 11  1  0        0
 11 12  1  0        0
 12 13  1  0        0
 13 14  1  0        0
 14 15  2  0        0
 14 16  1  0        0
 16 17  1  0        0
 16 18  1  0        0
 16 19  1  0        0
 19 20  1  0        0
 20 21  2  0        0
 20 22  1  0        0
M  END
>  <CAS RN>
2439103

>  <SMILES>
CCCCCCCCCCCCNC(=N)N([H])([H])OC(=O)C

>  <Measured or Estimated Log10(mmol/L)>
-4.122720493

$$$$

CDXL12

 11 11  0  0  0  0  0  0  0  0999 V2000
    1.7862   -0.4125    0.0000 C   0  0  0  0  0  0  0  2  0  0  0  0
    1.0717   -0.8250    0.0000 O   0  0  0  0  0  0  0  2  0  0  0  0
    0.3572   -0.4125    0.0000 C   0  0  0  0  0  0  0  2  0  0  0  0
   -0.3572   -0.8250    0.0000 C   0  0  0  0  0  0  0  2  0  0  0  0
   -1.0717   -0.4125    0.0000 C   0  0  0  0  0  0  0  2  0  0  0  0
   -1.7862   -0.8250    0.0000 Cl  0  0  0  0  0  0  0  2  0  0  0  0
   -1.0717    0.4125    0.0000 C   0  0  0  0  0  0  0  2  0  0  0  0
   -1.7862    0.8250    0.0000 Cl  0  0  0  0  0  0  0  2  0  0  0  0
   -0.3572    0.8250    0.0000 C   0  0  0  0  0  0  0  2  0  0  0  0
    0.3572    0.4125    0.0000 C   0  0  0  0  0  0  0  2  0  0  0  0
    1.0717    0.8250    0.0000 O   0  0  0  0  0  0  0  2  0  0  0  0
  1  2  1  0        0
  2  3  1  0        0
  3  4  4  0        0
  4  5  4  0        0
  5  6  1  0        0
  5  7  4  0        0
  7  8  1  0        0
  7  9  4  0        0
  9 10  4  0        0
  3 10  4  0        0
 10 11  1  0        0
M  END
>  <CAS RN>
2460493

>  <SMILES>
COc1cc(Cl)c(Cl)cc1O

>  <Measured or Estimated Log10(mmol/L)>
-0.59871038

$$$$

CDXL12

 17 17  0  0  0  0  0  0  0  0999 V2000
    2.8579   -0.4125    0.0000 C   0  0  0  0  0  0  0  2  0  0  0  0
    2.1434   -0.8250    0.0000 O   0  0  0  0  0  0  0  2  0  0  0  0
    1.4289   -0.4125    0.0000 P   0  0  0  0  0  0  0  2  0  0  0  0
    1.4289    0.4125    0.0000 S   0  0  0  0  0  0  0  2  0  0  0  0
    1.4289   -1.2375    0.0000 O   0  0  0  0  0  0  0  2  0  0  0  0
    2.1434   -1.6500    0.0000 C   0  0  0  0  0  0  0  2  0  0  0  0
    0.7145   -0.8250    0.0000 O   0  0  0  0  0  0  0  2  0  0  0  0
    0.0000   -0.4125    0.0000 C   0  0  0  0  0  0  0  2  0  0  0  0
   -0.7145   -0.8250    0.0000 C   0  0  0  0  0  0  0  2  0  0  0  0
   -1.4289   -0.4125    0.0000 C   0  0  0  0  0  0  0  2  0  0  0  0
   -1.4289    0.4125    0.0000 C   0  0  0  0  0  0  0  2  0  0  0  0
   -0.7145    0.8250    0.0000 C   0  0  0  0  0  0  0  2  0  0  0  0
    0.0000    0.4125    0.0000 C   0  0  0  0  0  0  0  2  0  0  0  0
    0.7145    0.8250    0.0000 Cl  0  0  0  0  0  0  0  2  0  0  0  0
   -2.1434    0.8250    0.0000 N   0  0  0  0  0  0  0  2  0  0  0  0
   -2.1434    1.6500    0.0000 O   0  0  0  0  0  0  0  2  0  0  0  0
   -2.8579    0.4125    0.0000 O   0  0  0  0  0  0  0  2  0  0  0  0
  1  2  1  0        0
  2  3  1  0        0
  3  4  2  0        0
  3  5  1  0        0
  5  6  1  0        0
  3  7  1  0        0
  7  8  1  0        0
  8  9  4  0        0
  9 10  4  0        0
 10 11  4  0        0
 11 12  4  0        0
 12 13  4  0        0
  8 13  4  0        0
 13 14  1  0        0
 11 15  1  0        0
 15 16  2  0        0
 15 17  2  0        0
M  END
>  <CAS RN>
2463845

>  <SMILES>
COP(=S)(OC)Oc1ccc(cc1Cl)N(=O)=O

>  <Measured or Estimated Log10(mmol/L)>
-5.332426645

$$$$

CDXL12

  7  6  0  0  0  0  0  0  0  0999 V2000
    0.0000    0.2062    0.0000 C   0  0  0  0  0  0  0  2  0  0  0  0
    0.0000    1.0312    0.0000 S   0  0  0  0  0  0  0  2  0  0  0  0
    0.7145   -0.2063    0.0000 N   0  0  0  0  0  0  0  2  0  0  0  0
    1.4289    0.2062    0.0000 C   0  0  0  0  0  0  0  2  0  0  0  0
   -0.7145   -0.2063    0.0000 N   0  0  0  0  0  0  0  2  0  0  0  0
   -0.7145   -1.0312    0.0000 C   0  0  0  0  0  0  0  2  0  0  0  0
   -1.4289    0.2062    0.0000 C   0  0  0  0  0  0  0  2  0  0  0  0
  1  2  2  0        0
  1  3  1  0        0
  3  4  1  0        0
  1  5  1  0        0
  5  6  1  0        0
  5  7  1  0        0
M  END
>  <CAS RN>
2489772

>  <SMILES>
C(=S)(NC)N(C)C

>  <Measured or Estimated Log10(mmol/L)>
0.8138659

$$$$

CDXL12

 16 15  0  0  0  0  0  0  0  0999 V2000
    3.2151   -0.2062    0.0000 C   0  0  0  0  0  0  0  2  0  0  0  0
    2.5006   -0.6187    0.0000 C   0  0  0  0  0  0  0  2  0  0  0  0
    1.7862   -0.2062    0.0000 O   0  0  0  0  0  0  0  2  0  0  0  0
    1.0717   -0.6187    0.0000 P   0  0  0  0  0  0  0  2  0  0  0  0
    1.0717   -1.4437    0.0000 S   0  0  0  0  0  0  0  2  0  0  0  0
    1.0717    0.2063    0.0000 O   0  0  0  0  0  0  0  2  0  0  0  0
    1.7862    0.6187    0.0000 C   0  0  0  0  0  0  0  2  0  0  0  0
    1.7862    1.4437    0.0000 C   0  0  0  0  0  0  0  2  0  0  0  0
    0.3572   -0.2062    0.0000 S   0  0  0  0  0  0  0  2  0  0  0  0
   -0.3572   -0.6187    0.0000 C   0  0  0  0  0  0  0  2  0  0  0  0
   -1.0717   -0.2062    0.0000 C   0  0  0  0  0  0  0  2  0  0  0  0
   -1.7862   -0.6187    0.0000 S   0  0  0  0  0  0  0  2  0  0  0  0
   -2.1987    0.0957    0.0000 O   0  0  0  0  0  0  0  2  0  0  0  0
   -1.3737   -1.3332    0.0000 O   0  0  0  0  0  0  0  2  0  0  0  0
   -2.5006   -1.0312    0.0000 C   0  0  0  0  0  0  0  2  0  0  0  0
   -3.2151   -0.6187    0.0000 C   0  0  0  0  0  0  0  2  0  0  0  0
  1  2  1  0        0
  2  3  1  0        0
  3  4  1  0        0
  4  5  2  0        0
  4  6  1  0        0
  6  7  1  0        0
  7  8  1  0        0
  4  9  1  0        0
  9 10  1  0        0
 10 11  1  0        0
 11 12  1  0        0
 12 13  2  0        0
 12 14  2  0        0
 12 15  1  0        0
 15 16  1  0        0
M  END
>  <CAS RN>
2497065

>  <SMILES>
CCOP(=S)(OCC)SCCS(=O)(=O)CC

>  <Measured or Estimated Log10(mmol/L)>
-3.553022788

$$$$

CDXL12

 15 14  0  0  0  0  0  0  0  0999 V2000
   -3.2151    0.2062    0.0000 C   0  0  0  0  0  0  0  2  0  0  0  0
   -2.5006    0.6187    0.0000 C   0  0  0  0  0  0  0  2  0  0  0  0
   -1.7862    0.2062    0.0000 O   0  0  0  0  0  0  0  2  0  0  0  0
   -1.0717    0.6187    0.0000 P   0  0  0  0  0  0  0  2  0  0  0  0
   -1.0717    1.4438    0.0000 S   0  0  0  0  0  0  0  2  0  0  0  0
   -1.0717   -0.2062    0.0000 O   0  0  0  0  0  0  0  2  0  0  0  0
   -1.7862   -0.6188    0.0000 C   0  0  0  0  0  0  0  2  0  0  0  0
   -1.7862   -1.4438    0.0000 C   0  0  0  0  0  0  0  2  0  0  0  0
   -0.3572    0.2062    0.0000 S   0  0  0  0  0  0  0  2  0  0  0  0
    0.3572    0.6188    0.0000 C   0  0  0  0  0  0  0  2  0  0  0  0
    1.0717    0.2062    0.0000 C   0  0  0  0  0  0  0  2  0  0  0  0
    1.7862    0.6187    0.0000 S   0  0  0  0  0  0  0  2  0  0  0  0
    1.7862    1.4437    0.0000 O   0  0  0  0  0  0  0  2  0  0  0  0
    2.5006    0.2062    0.0000 C   0  0  0  0  0  0  0  2  0  0  0  0
    3.2151    0.6187    0.0000 C   0  0  0  0  0  0  0  2  0  0  0  0
  1  2  1  0        0
  2  3  1  0        0
  3  4  1  0        0
  4  5  2  0        0
  4  6  1  0        0
  6  7  1  0        0
  7  8  1  0        0
  4  9  1  0        0
  9 10  1  0        0
 10 11  1  0        0
 11 12  1  0        0
 12 13  2  0        0
 12 14  1  0        0
 14 15  1  0        0
M  END
>  <CAS RN>
2497076

>  <SMILES>
CCOP(=S)(OCC)SCCS(=O)CC

>  <Measured or Estimated Log10(mmol/L)>
-4.425607133

$$$$

CDXL12

 11 10  0  0  0  0  0  0  0  0999 V2000
    0.0000    1.4438    0.0000 S   0  0  0  0  0  0  0  2  0  0  0  0
    0.0000    0.6188    0.0000 P   0  0  0  0  0  0  0  2  0  0  0  0
   -0.7145    0.2062    0.0000 S   0  0  0  0  0  0  0  2  0  0  0  0
   -1.4289    0.6187    0.0000 C   0  0  0  0  0  0  0  2  0  0  0  0
   -2.1434    0.2062    0.0000 C   0  0  0  0  0  0  0  2  0  0  0  0
    0.7145    0.2062    0.0000 O   0  0  0  0  0  0  0  2  0  0  0  0
    1.4289    0.6187    0.0000 C   0  0  0  0  0  0  0  2  0  0  0  0
    2.1434    0.2062    0.0000 C   0  0  0  0  0  0  0  2  0  0  0  0
    0.0000   -0.2062    0.0000 O   0  0  0  0  0  0  0  2  0  0  0  0
    0.7145   -0.6188    0.0000 C   0  0  0  0  0  0  0  2  0  0  0  0
    0.7145   -1.4438    0.0000 C   0  0  0  0  0  0  0  2  0  0  0  0
  1  2  2  0        0
  2  3  1  0        0
  3  4  1  0        0
  4  5  1  0        0
  2  6  1  0        0
  6  7  1  0        0
  7  8  1  0        0
  2  9  1  0        0
  9 10  1  0        0
 10 11  1  0        0
M  END
>  <CAS RN>
2524096

>  <SMILES>
S=P(SCC)(OCC)OCC

>  <Measured or Estimated Log10(mmol/L)>
-1.319466128

$$$$

CDXL12

 13 13  0  0  0  0  0  0  0  0999 V2000
    1.7862   -0.4125    0.0000 C   0  0  0  0  0  0  0  2  0  0  0  0
    1.0717   -0.8250    0.0000 O   0  0  0  0  0  0  0  2  0  0  0  0
    0.3572   -0.4125    0.0000 C   0  0  0  0  0  0  0  2  0  0  0  0
   -0.3572   -0.8250    0.0000 C   0  0  0  0  0  0  0  2  0  0  0  0
   -0.3572   -1.6500    0.0000 O   0  0  0  0  0  0  0  2  0  0  0  0
   -1.0717   -0.4125    0.0000 C   0  0  0  0  0  0  0  2  0  0  0  0
   -1.7862   -0.8250    0.0000 Cl  0  0  0  0  0  0  0  2  0  0  0  0
   -1.0717    0.4125    0.0000 C   0  0  0  0  0  0  0  2  0  0  0  0
   -1.7862    0.8250    0.0000 Cl  0  0  0  0  0  0  0  2  0  0  0  0
   -0.3572    0.8250    0.0000 C   0  0  0  0  0  0  0  2  0  0  0  0
   -0.3572    1.6500    0.0000 Cl  0  0  0  0  0  0  0  2  0  0  0  0
    0.3572    0.4125    0.0000 C   0  0  0  0  0  0  0  2  0  0  0  0
    1.0717    0.8250    0.0000 Cl  0  0  0  0  0  0  0  2  0  0  0  0
  1  2  1  0        0
  2  3  1  0        0
  3  4  4  0        0
  4  5  1  0        0
  4  6  4  0        0
  6  7  1  0        0
  6  8  4  0        0
  8  9  1  0        0
  8 10  4  0        0
 10 11  1  0        0
 10 12  4  0        0
  3 12  4  0        0
 12 13  1  0        0
M  END
>  <CAS RN>
2539175

>  <SMILES>
COc1c(O)c(Cl)c(Cl)c(Cl)c1Cl

>  <Measured or Estimated Log10(mmol/L)>
-3.011626824

$$$$

CDXL12

 14 14  0  0  0  0  0  0  0  0999 V2000
   -0.7145   -0.8250    0.0000 C   0  0  0  0  0  0  0  2  0  0  0  0
   -1.4289   -0.4125    0.0000 C   0  0  0  0  0  0  0  2  0  0  0  0
   -1.4289    0.4125    0.0000 C   0  0  0  0  0  0  0  2  0  0  0  0
   -0.7145    0.8250    0.0000 N   0  0  0  0  0  0  0  2  0  0  0  0
    0.0000    0.4125    0.0000 C   0  0  0  0  0  0  0  2  0  0  0  0
    0.0000   -0.4125    0.0000 C   0  0  0  0  0  0  0  2  0  0  0  0
    0.7145   -0.8250    0.0000 Cl  0  0  0  0  0  0  0  2  0  0  0  0
    0.7145    0.8250    0.0000 C   0  0  0  0  0  0  0  2  0  0  0  0
    0.7145    1.6500    0.0000 O   0  0  0  0  0  0  0  2  0  0  0  0
    1.4289    0.4125    0.0000 O   0  0  0  0  0  0  0  2  0  0  0  0
    2.1434    0.8250    0.0000 K   0  0  0  0  0  0  0  2  0  0  0  0
   -2.1434    0.8250    0.0000 Cl  0  0  0  0  0  0  0  2  0  0  0  0
   -2.1434   -0.8250    0.0000 Cl  0  0  0  0  0  0  0  2  0  0  0  0
   -0.7145   -1.6500    0.0000 N   0  0  0  0  0  0  0  2  0  0  0  0
  1  2  4  0        0
  2  3  4  0        0
  3  4  4  0        0
  4  5  4  0        0
  5  6  4  0        0
  1  6  4  0        0
  6  7  1  0        0
  5  8  1  0        0
  8  9  2  0        0
  8 10  1  0        0
 10 11  1  0        0
  3 12  1  0        0
  2 13  1  0        0
  1 14  1  0        0
M  END
>  <CAS RN>
2545600

>  <SMILES>
c1(c(c(nc(c1Cl)C(=O)O[K])Cl)Cl)N

>  <Measured or Estimated Log10(mmol/L)>
-0.120125189

$$$$

CDXL12

 20 19  0  0  0  0  0  0  0  0999 V2000
    3.9296    0.2062    0.0000 C   0  0  0  0  0  0  0  2  0  0  0  0
    3.2151   -0.2062    0.0000 C   0  0  0  0  0  0  0  2  0  0  0  0
    2.5006    0.2063    0.0000 C   0  0  0  0  0  0  0  2  0  0  0  0
    1.7862   -0.2062    0.0000 N   0  0  0  0  0  0  0  2  0  0  0  0
    1.7862   -1.0312    0.0000 C   0  0  0  0  0  0  0  2  0  0  0  0
    2.5006   -1.4437    0.0000 C   0  0  0  0  0  0  0  2  0  0  0  0
    2.5006   -2.2687    0.0000 C   0  0  0  0  0  0  0  2  0  0  0  0
    1.0717    0.2062    0.0000 C   0  0  0  0  0  0  0  2  0  0  0  0
    1.0717    1.0313    0.0000 S   0  0  0  0  0  0  0  2  0  0  0  0
    0.3572   -0.2062    0.0000 S   0  0  0  0  0  0  0  2  0  0  0  0
   -0.3572    0.2062    0.0000 S   0  0  0  0  0  0  0  2  0  0  0  0
   -1.0717   -0.2062    0.0000 C   0  0  0  0  0  0  0  2  0  0  0  0
   -1.0717   -1.0312    0.0000 S   0  0  0  0  0  0  0  2  0  0  0  0
   -1.7862    0.2062    0.0000 N   0  0  0  0  0  0  0  2  0  0  0  0
   -2.5006   -0.2062    0.0000 C   0  0  0  0  0  0  0  2  0  0  0  0
   -3.2151    0.2062    0.0000 C   0  0  0  0  0  0  0  2  0  0  0  0
   -3.9296   -0.2062    0.0000 C   0  0  0  0  0  0  0  2  0  0  0  0
   -1.7862    1.0312    0.0000 C   0  0  0  0  0  0  0  2  0  0  0  0
   -2.5006    1.4437    0.0000 C   0  0  0  0  0  0  0  2  0  0  0  0
   -2.5006    2.2687    0.0000 C   0  0  0  0  0  0  0  2  0  0  0  0
  1  2  1  0        0
  2  3  1  0        0
  3  4  1  0        0
  4  5  1  0        0
  5  6  1  0        0
  6  7  1  0        0
  4  8  1  0        0
  8  9  2  0        0
  8 10  1  0        0
 10 11  1  0        0
 11 12  1  0        0
 12 13  2  0        0
 12 14  1  0        0
 14 15  1  0        0
 15 16  1  0        0
 16 17  1  0        0
 14 18  1  0        0
 18 19  1  0        0
 19 20  1  0        0
M  END
>  <CAS RN>
2556425

>  <SMILES>
CCCN(CCC)C(=S)SSC(=S)N(CCC)CCC

>  <Measured or Estimated Log10(mmol/L)>
-3.185613589

$$$$

CDXL12

 24 24  0  0  0  0  0  0  0  0999 V2000
   -2.4919   -1.8030    0.0000 C   0  0  0  0  0  0  0  2  0  0  0  0
   -3.2064   -1.3905    0.0000 C   0  0  0  0  0  0  0  2  0  0  0  0
   -3.2064   -0.5655    0.0000 C   0  0  0  0  0  0  0  2  0  0  0  0
   -2.4919   -0.1530    0.0000 C   0  0  0  0  0  0  0  2  0  0  0  0
   -1.7774   -0.5655    0.0000 C   0  0  0  0  0  0  0  2  0  0  0  0
   -1.7774   -1.3905    0.0000 C   0  0  0  0  0  0  0  2  0  0  0  0
   -1.0629   -1.8030    0.0000 Cl  0  0  0  0  0  0  0  2  0  0  0  0
   -1.0629   -0.1530    0.0000 O   0  0  0  0  0  0  0  2  0  0  0  0
   -0.3485   -0.5655    0.0000 C   0  0  0  0  0  0  0  2  0  0  0  0
    0.3660   -0.1530    0.0000 C   0  0  0  0  0  0  0  2  0  0  0  0
    0.3660    0.6720    0.0000 O   0  0  0  0  0  0  0  2  0  0  0  0
    1.0805   -0.5655    0.0000 O   0  0  0  0  0  0  0  2  0  0  0  0
    1.7949   -0.1530    0.0000 N   0  0  0  0  0  0  0  2  0  0  0  0
    1.9665   -0.9599    0.0000 C   0  0  0  0  0  0  0  2  0  0  0  0
    2.7511   -1.2149    0.0000 C   0  0  0  0  0  0  0  2  0  0  0  0
    2.9226   -2.0218    0.0000 O   0  0  0  0  0  0  0  2  0  0  0  0
    2.1305    0.6007    0.0000 C   0  0  0  0  0  0  0  2  0  0  0  0
    1.6456    1.2682    0.0000 C   0  0  0  0  0  0  0  2  0  0  0  0
    1.9811    2.0218    0.0000 O   0  0  0  0  0  0  0  2  0  0  0  0
    2.6154   -0.2392    0.0000 C   0  0  0  0  0  0  0  2  0  0  0  0
    3.1003    0.4282    0.0000 C   0  0  0  0  0  0  0  2  0  0  0  0
    3.9208    0.3420    0.0000 O   0  0  0  0  0  0  0  2  0  0  0  0
    1.1818    0.3991    0.0000 H   0  0  0  0  0  0  0  2  0  0  0  0
   -3.9208   -1.8030    0.0000 Cl  0  0  0  0  0  0  0  2  0  0  0  0
  1  2  4  0        0
  2  3  4  0        0
  3  4  4  0        0
  4  5  4  0        0
  5  6  4  0        0
  1  6  4  0        0
  6  7  1  0        0
  5  8  1  0        0
  8  9  1  0        0
  9 10  1  0        0
 10 11  2  0        0
 10 12  1  0        0
 12 13  1  0        0
 13 14  1  0        0
 14 15  1  0        0
 15 16  1  0        0
 13 17  1  0        0
 17 18  1  0        0
 18 19  1  0        0
 13 20  1  0        0
 20 21  1  0        0
 21 22  1  0        0
 13 23  1  0        0
  2 24  1  0        0
M  END
>  <CAS RN>
2569019

>  <SMILES>
c1c(ccc(c1Cl)OCC(=O)ON(CCO)(CCO)(CCO)[H])Cl

>  <Measured or Estimated Log10(mmol/L)>
-0.450371122

$$$$

CDXL12

  9  8  0  0  0  0  0  0  0  0999 V2000
    0.7145   -0.2062    0.0000 C   0  0  0  0  0  0  0  2  0  0  0  0
    0.0000    0.2062    0.0000 C   0  0  0  0  0  0  0  2  0  0  0  0
   -0.7145   -0.2062    0.0000 C   0  0  0  0  0  0  0  2  0  0  0  0
   -1.4289    0.2062    0.0000 Se  0  0  0  0  0  0  0  2  0  0  0  0
   -2.1434   -0.2062    0.0000 C   0  0  0  0  0  0  0  2  0  0  0  0
    0.7145   -1.0313    0.0000 N   0  0  0  0  0  0  0  2  0  0  0  0
    1.4289    0.2062    0.0000 C   0  0  0  0  0  0  0  2  0  0  0  0
    2.1434   -0.2062    0.0000 O   0  0  0  0  0  0  0  2  0  0  0  0
    1.4289    1.0313    0.0000 O   0  0  0  0  0  0  0  2  0  0  0  0
  1  2  1  0        0
  2  3  1  0        0
  3  4  1  0        0
  4  5  1  0        0
  1  6  1  0        0
  1  7  1  0        0
  7  8  1  0        0
  7  9  2  0        0
M  END
>  <CAS RN>
2578281

>  <SMILES>
C(CC[Se]C)(N)C(O)=O

>  <Measured or Estimated Log10(mmol/L)>
-2.801133617

$$$$

CDXL12

 11 11  0  0  0  0  0  0  0  0999 V2000
   -1.0717    1.2375    0.0000 O   0  0  0  0  0  0  0  2  0  0  0  0
   -1.0717    0.4125    0.0000 N   0  0  0  0  0  0  0  2  0  0  0  0
   -1.7862   -0.0000    0.0000 O   0  0  0  0  0  0  0  2  0  0  0  0
   -0.3572   -0.0000    0.0000 C   0  0  0  0  0  0  0  2  0  0  0  0
   -0.3572   -0.8250    0.0000 C   0  0  0  0  0  0  0  2  0  0  0  0
    0.3572   -1.2375    0.0000 C   0  0  0  0  0  0  0  2  0  0  0  0
    1.0717   -0.8250    0.0000 C   0  0  0  0  0  0  0  2  0  0  0  0
    1.7862   -1.2375    0.0000 O   0  0  0  0  0  0  0  2  0  0  0  0
    1.0717    0.0000    0.0000 C   0  0  0  0  0  0  0  2  0  0  0  0
    0.3572    0.4125    0.0000 C   0  0  0  0  0  0  0  2  0  0  0  0
   -1.0717   -1.2375    0.0000 C   0  0  0  0  0  0  0  2  0  0  0  0
  1  2  2  0        0
  2  3  2  0        0
  2  4  1  0        0
  4  5  4  0        0
  5  6  4  0        0
  6  7  4  0        0
  7  8  1  0        0
  7  9  4  0        0
  9 10  4  0        0
  4 10  4  0        0
  5 11  1  0        0
M  END
>  <CAS RN>
2581342

>  <SMILES>
O=N(=O)c1c(cc(O)cc1)C

>  <Measured or Estimated Log10(mmol/L)>
-0.9893277

$$$$

CDXL12

 12 12  0  0  0  0  0  0  0  0999 V2000
    1.7862   -0.8250    0.0000 C   0  0  0  0  0  0  0  2  0  0  0  0
    1.0717   -1.2375    0.0000 O   0  0  0  0  0  0  0  2  0  0  0  0
    0.3572   -0.8250    0.0000 C   0  0  0  0  0  0  0  2  0  0  0  0
   -0.3572   -1.2375    0.0000 C   0  0  0  0  0  0  0  2  0  0  0  0
   -1.0717   -0.8250    0.0000 C   0  0  0  0  0  0  0  2  0  0  0  0
   -1.7862   -1.2375    0.0000 Cl  0  0  0  0  0  0  0  2  0  0  0  0
   -1.0717    0.0000    0.0000 C   0  0  0  0  0  0  0  2  0  0  0  0
   -1.7862    0.4125    0.0000 Cl  0  0  0  0  0  0  0  2  0  0  0  0
   -0.3572    0.4125    0.0000 C   0  0  0  0  0  0  0  2  0  0  0  0
   -0.3572    1.2375    0.0000 Cl  0  0  0  0  0  0  0  2  0  0  0  0
    0.3572    0.0000    0.0000 C   0  0  0  0  0  0  0  2  0  0  0  0
    1.0717    0.4125    0.0000 O   0  0  0  0  0  0  0  2  0  0  0  0
  1  2  1  0        0
  2  3  1  0        0
  3  4  4  0        0
  4  5  4  0        0
  5  6  1  0        0
  5  7  4  0        0
  7  8  1  0        0
  7  9  4  0        0
  9 10  1  0        0
  9 11  4  0        0
  3 11  4  0        0
 11 12  1  0        0
M  END
>  <CAS RN>
2668248

>  <SMILES>
COc1cc(Cl)c(Cl)c(Cl)c1O

>  <Measured or Estimated Log10(mmol/L)>
-2.374660531

$$$$

CDXL12

 13 12  0  0  0  0  0  0  0  0999 V2000
   -1.4289    1.0313    0.0000 S   0  0  0  0  0  0  0  2  0  0  0  0
   -1.4289    0.2062    0.0000 P   0  0  0  0  0  0  0  2  0  0  0  0
   -0.7145   -0.2062    0.0000 S   0  0  0  0  0  0  0  2  0  0  0  0
   -0.0000    0.2062    0.0000 C   0  0  0  0  0  0  0  2  0  0  0  0
    0.7145   -0.2062    0.0000 C   0  0  0  0  0  0  0  2  0  0  0  0
    1.4289    0.2062    0.0000 S   0  0  0  0  0  0  0  2  0  0  0  0
    1.4289    1.0312    0.0000 O   0  0  0  0  0  0  0  2  0  0  0  0
    2.1434   -0.2062    0.0000 C   0  0  0  0  0  0  0  2  0  0  0  0
    2.8579    0.2062    0.0000 C   0  0  0  0  0  0  0  2  0  0  0  0
   -2.1434   -0.2062    0.0000 O   0  0  0  0  0  0  0  2  0  0  0  0
   -2.8579    0.2062    0.0000 C   0  0  0  0  0  0  0  2  0  0  0  0
   -1.4289   -0.6188    0.0000 O   0  0  0  0  0  0  0  2  0  0  0  0
   -2.1434   -1.0313    0.0000 C   0  0  0  0  0  0  0  2  0  0  0  0
  1  2  2  0        0
  2  3  1  0        0
  3  4  1  0        0
  4  5  1  0        0
  5  6  1  0        0
  6  7  2  0        0
  6  8  1  0        0
  8  9  1  0        0
  2 10  1  0        0
 10 11  1  0        0
  2 12  1  0        0
 12 13  1  0        0
M  END
>  <CAS RN>
2703379

>  <SMILES>
S=P(SCCS(=O)CC)(OC)OC

>  <Measured or Estimated Log10(mmol/L)>
-2.4297986

$$$$

CDXL12

 12 12  0  0  0  0  0  0  0  0999 V2000
    0.3572   -0.8250    0.0000 N   0  0  0  0  0  0  0  2  0  0  0  0
   -0.3572   -0.4125    0.0000 C   0  0  0  0  0  0  0  2  0  0  0  0
   -0.3572    0.4125    0.0000 S   0  0  0  0  0  0  0  2  0  0  0  0
   -1.0717   -0.8250    0.0000 N   0  0  0  0  0  0  0  2  0  0  0  0
   -1.7862   -0.4125    0.0000 C   0  0  0  0  0  0  0  2  0  0  0  0
   -2.5006   -0.8250    0.0000 C   0  0  0  0  0  0  0  2  0  0  0  0
    1.0717   -0.4125    0.0000 C   0  0  0  0  0  0  0  2  0  0  0  0
    1.0717    0.4125    0.0000 C   0  0  0  0  0  0  0  2  0  0  0  0
    1.7862    0.8250    0.0000 C   0  0  0  0  0  0  0  2  0  0  0  0
    2.5006    0.4125    0.0000 C   0  0  0  0  0  0  0  2  0  0  0  0
    2.5006   -0.4125    0.0000 C   0  0  0  0  0  0  0  2  0  0  0  0
    1.7862   -0.8250    0.0000 C   0  0  0  0  0  0  0  2  0  0  0  0
  1  2  1  0        0
  2  3  2  0        0
  2  4  1  0        0
  4  5  1  0        0
  5  6  1  0        0
  1  7  1  0        0
  7  8  4  0        0
  8  9  4  0        0
  9 10  4  0        0
 10 11  4  0        0
 11 12  4  0        0
  7 12  4  0        0
M  END
>  <CAS RN>
2741062

>  <SMILES>
N(C(=S)NCC)c1ccccc1

>  <Measured or Estimated Log10(mmol/L)>
-0.351756318

$$$$

CDXL12

 14 16  0  0  0  0  0  0  0  0999 V2000
    1.0717   -0.2062    0.0000 N   0  3  0  0  0  0  0  2  0  0  0  0
    1.7862    0.2062    0.0000 C   0  0  0  0  0  0  0  2  0  0  0  0
    1.7862    1.0313    0.0000 C   0  0  0  0  0  0  0  2  0  0  0  0
    1.0717    1.4438    0.0000 C   0  0  0  0  0  0  0  2  0  0  0  0
    0.3572    1.0313    0.0000 C   0  0  0  0  0  0  0  2  0  0  0  0
    0.3572    0.2062    0.0000 C   0  0  0  0  0  0  0  2  0  0  0  0
   -0.3572   -0.2062    0.0000 C   0  0  0  0  0  0  0  2  0  0  0  0
   -1.0717    0.2062    0.0000 C   0  0  0  0  0  0  0  2  0  0  0  0
   -1.7862   -0.2063    0.0000 C   0  0  0  0  0  0  0  2  0  0  0  0
   -1.7862   -1.0313    0.0000 C   0  0  0  0  0  0  0  2  0  0  0  0
   -1.0717   -1.4438    0.0000 C   0  0  0  0  0  0  0  2  0  0  0  0
   -0.3572   -1.0313    0.0000 N   0  3  0  0  0  0  0  2  0  0  0  0
    0.3572   -1.4437    0.0000 C   0  0  0  0  0  0  0  2  0  0  0  0
    1.0717   -1.0312    0.0000 C   0  0  0  0  0  0  0  2  0  0  0  0
  1  2  4  0        0
  2  3  4  0        0
  3  4  4  0        0
  4  5  4  0        0
  5  6  4  0        0
  1  6  4  0        0
  6  7  1  0        0
  7  8  4  0        0
  8  9  4  0        0
  9 10  4  0        0
 10 11  4  0        0
 11 12  4  0        0
  7 12  4  0        0
 12 13  1  0        0
 13 14  1  0        0
  1 14  1  0        0
M  CHG  2   1   1  12   1
M  END
>  <CAS RN>
2764729

>  <SMILES>
[n+]12ccccc1c1cccc[n+]1CC2

>  <Measured or Estimated Log10(mmol/L)>
-2.010116134

$$$$

CDXL12

  8  7  0  0  0  0  0  0  0  0999 V2000
    0.0000   -1.0313    0.0000 Br  0  0  0  0  0  0  0  2  0  0  0  0
    0.0000   -0.2063    0.0000 Sn  0  0  0  0  0  0  0  2  0  0  0  0
    0.7145   -0.6188    0.0000 C   0  0  0  0  0  0  0  2  0  0  0  0
    1.4289   -0.2062    0.0000 C   0  0  0  0  0  0  0  2  0  0  0  0
   -0.7145   -0.6188    0.0000 C   0  0  0  0  0  0  0  2  0  0  0  0
   -1.4289   -0.2063    0.0000 C   0  0  0  0  0  0  0  2  0  0  0  0
    0.0000    0.6188    0.0000 C   0  0  0  0  0  0  0  2  0  0  0  0
    0.7145    1.0313    0.0000 C   0  0  0  0  0  0  0  2  0  0  0  0
  1  2  1  0        0
  2  3  1  0        0
  3  4  1  0        0
  2  5  1  0        0
  5  6  1  0        0
  2  7  1  0        0
  7  8  1  0        0
M  END
>  <CAS RN>
2767546

>  <SMILES>
Br[Sn](CC)(CC)CC

>  <Measured or Estimated Log10(mmol/L)>
-3.4453824

$$$$

CDXL12

  8  7  0  0  0  0  0  0  0  0999 V2000
    0.0000    0.2062    0.0000 C   0  0  0  0  0  0  0  2  0  0  0  0
    0.0000    1.0313    0.0000 S   0  0  0  0  0  0  0  2  0  0  0  0
   -0.7145   -0.2062    0.0000 N   0  0  0  0  0  0  0  2  0  0  0  0
   -0.7145   -1.0312    0.0000 C   0  0  0  0  0  0  0  2  0  0  0  0
   -1.4289    0.2062    0.0000 C   0  0  0  0  0  0  0  2  0  0  0  0
    0.7145   -0.2062    0.0000 N   0  0  0  0  0  0  0  2  0  0  0  0
    1.4289    0.2062    0.0000 C   0  0  0  0  0  0  0  2  0  0  0  0
    0.7145   -1.0313    0.0000 C   0  0  0  0  0  0  0  2  0  0  0  0
  1  2  2  0        0
  1  3  1  0        0
  3  4  1  0        0
  3  5  1  0        0
  1  6  1  0        0
  6  7  1  0        0
  6  8  1  0        0
M  END
>  <CAS RN>
2782914

>  <SMILES>
C(=S)(N(C)C)N(C)C

>  <Measured or Estimated Log10(mmol/L)>
0.765164012

$$$$

CDXL12

 10 10  0  0  0  0  0  0  0  0999 V2000
   -1.7862   -0.0000    0.0000 N   0  0  0  0  0  0  0  2  0  0  0  0
   -1.0717   -0.4125    0.0000 C   0  0  0  0  0  0  0  2  0  0  0  0
   -0.3572   -0.8250    0.0000 C   0  0  0  0  0  0  0  2  0  0  0  0
    0.3572   -0.4125    0.0000 C   0  0  0  0  0  0  0  2  0  0  0  0
    0.3572    0.4125    0.0000 C   0  0  0  0  0  0  0  2  0  0  0  0
   -0.3572    0.8250    0.0000 Cl  0  0  0  0  0  0  0  2  0  0  0  0
    1.0717    0.8250    0.0000 C   0  0  0  0  0  0  0  2  0  0  0  0
    1.7862    0.4125    0.0000 C   0  0  0  0  0  0  0  2  0  0  0  0
    1.7862   -0.4125    0.0000 C   0  0  0  0  0  0  0  2  0  0  0  0
    1.0717   -0.8250    0.0000 C   0  0  0  0  0  0  0  2  0  0  0  0
  1  2  3  0        0
  2  3  1  0        0
  3  4  1  0        0
  4  5  4  0        0
  5  6  1  0        0
  5  7  4  0        0
  7  8  4  0        0
  8  9  4  0        0
  9 10  4  0        0
  4 10  4  0        0
M  END
>  <CAS RN>
2856635

>  <SMILES>
N#CCc1c(Cl)cccc1

>  <Measured or Estimated Log10(mmol/L)>
-1.124541793

$$$$

CDXL12

 14 13  0  0  0  0  0  0  0  0999 V2000
    2.5006    0.2062    0.0000 C   0  0  0  0  0  0  0  2  0  0  0  0
    2.5006    1.0313    0.0000 O   0  0  0  0  0  0  0  2  0  0  0  0
    3.2151   -0.2062    0.0000 O   0  0  0  0  0  0  0  2  0  0  0  0
    1.7862   -0.2062    0.0000 C   0  0  0  0  0  0  0  2  0  0  0  0
    1.0717    0.2062    0.0000 C   0  0  0  0  0  0  0  2  0  0  0  0
    0.3572   -0.2062    0.0000 Se  0  0  0  0  0  0  0  2  0  0  0  0
   -0.3572    0.2062    0.0000 Se  0  0  0  0  0  0  0  2  0  0  0  0
   -1.0717   -0.2062    0.0000 C   0  0  0  0  0  0  0  2  0  0  0  0
   -1.7862    0.2062    0.0000 C   0  0  0  0  0  0  0  2  0  0  0  0
   -2.5006   -0.2062    0.0000 C   0  0  0  0  0  0  0  2  0  0  0  0
   -3.2151    0.2062    0.0000 O   0  0  0  0  0  0  0  2  0  0  0  0
   -2.5006   -1.0313    0.0000 O   0  0  0  0  0  0  0  2  0  0  0  0
   -1.7862    1.0312    0.0000 N   0  0  0  0  0  0  0  2  0  0  0  0
    1.7862   -1.0313    0.0000 N   0  0  0  0  0  0  0  2  0  0  0  0
  1  2  2  0        0
  1  3  1  0        0
  1  4  1  0        0
  4  5  1  0        0
  5  6  1  0        0
  6  7  1  0        0
  7  8  1  0        0
  8  9  1  0        0
  9 10  1  0        0
 10 11  1  0        0
 10 12  2  0        0
  9 13  1  0        0
  4 14  1  0        0
M  END
>  <CAS RN>
2897214

>  <SMILES>
C(=O)(O)C(C[Se][Se]CC(C(O)=O)N)N

>  <Measured or Estimated Log10(mmol/L)>
-2.220670019

$$$$

CDXL12

 18 18  0  0  0  0  0  0  0  0999 V2000
   -2.5006    0.4125    0.0000 C   0  0  0  0  0  0  0  2  0  0  0  0
   -1.7862    0.8250    0.0000 C   0  0  0  0  0  0  0  2  0  0  0  0
   -1.0717    0.4125    0.0000 O   0  0  0  0  0  0  0  2  0  0  0  0
   -0.3572    0.8250    0.0000 P   0  0  0  0  0  0  0  2  0  0  0  0
   -0.3572    1.6500    0.0000 S   0  0  0  0  0  0  0  2  0  0  0  0
    0.3572    0.4125    0.0000 O   0  0  0  0  0  0  0  2  0  0  0  0
    1.0717    0.8250    0.0000 C   0  0  0  0  0  0  0  2  0  0  0  0
    1.7862    0.4125    0.0000 C   0  0  0  0  0  0  0  2  0  0  0  0
   -0.3572    0.0000    0.0000 O   0  0  0  0  0  0  0  2  0  0  0  0
    0.3572   -0.4125    0.0000 C   0  0  0  0  0  0  0  2  0  0  0  0
    1.0717    0.0000    0.0000 N   0  0  0  0  0  0  0  2  0  0  0  0
    1.7862   -0.4125    0.0000 C   0  0  0  0  0  0  0  2  0  0  0  0
    2.5006    0.0000    0.0000 Cl  0  0  0  0  0  0  0  2  0  0  0  0
    1.7862   -1.2375    0.0000 C   0  0  0  0  0  0  0  2  0  0  0  0
    2.5006   -1.6500    0.0000 Cl  0  0  0  0  0  0  0  2  0  0  0  0
    1.0717   -1.6500    0.0000 C   0  0  0  0  0  0  0  2  0  0  0  0
    0.3572   -1.2375    0.0000 C   0  0  0  0  0  0  0  2  0  0  0  0
   -0.3572   -1.6500    0.0000 Cl  0  0  0  0  0  0  0  2  0  0  0  0
  1  2  1  0        0
  2  3  1  0        0
  3  4  1  0        0
  4  5  2  0        0
  4  6  1  0        0
  6  7  1  0        0
  7  8  1  0        0
  4  9  1  0        0
  9 10  1  0        0
 10 11  4  0        0
 11 12  4  0        0
 12 13  1  0        0
 12 14  4  0        0
 14 15  1  0        0
 14 16  4  0        0
 16 17  4  0        0
 10 17  4  0        0
 17 18  1  0        0
M  END
>  <CAS RN>
2921882

>  <SMILES>
CCOP(=S)(OCC)Oc1nc(Cl)c(Cl)cc1Cl

>  <Measured or Estimated Log10(mmol/L)>
-5.544797047

$$$$

CDXL12

  8  7  0  0  0  0  0  0  0  0999 V2000
    0.3572   -0.4125    0.0000 S   0  0  0  0  0  0  0  2  0  0  0  0
   -0.3572   -0.0000    0.0000 C   0  0  0  0  0  0  0  2  0  0  0  0
   -1.0717   -0.4125    0.0000 C   0  0  0  0  0  0  0  2  0  0  0  0
   -1.7862   -0.0000    0.0000 N   0  0  0  0  0  0  0  2  0  0  0  0
    1.0717    0.0000    0.0000 S   0  0  0  0  0  0  0  2  0  0  0  0
    1.4842   -0.7145    0.0000 O   0  0  0  0  0  0  0  2  0  0  0  0
    0.6592    0.7145    0.0000 O   0  0  0  0  0  0  0  2  0  0  0  0
    1.7862    0.4125    0.0000 O   0  0  0  0  0  0  0  2  0  0  0  0
  1  2  1  0        0
  2  3  1  0        0
  3  4  1  0        0
  1  5  1  0        0
  5  6  2  0        0
  5  7  2  0        0
  5  8  1  0        0
M  END
>  <CAS RN>
2937533

>  <SMILES>
S(CCN)S(=O)(=O)O

>  <Measured or Estimated Log10(mmol/L)>
-1.383490418

$$$$

CDXL12

  8  7  0  0  0  0  0  0  0  0999 V2000
    0.0000    1.0313    0.0000 S   0  0  0  0  0  0  0  2  0  0  0  0
    0.0000    0.2062    0.0000 P   0  0  0  0  0  0  0  2  0  0  0  0
    0.7145   -0.2062    0.0000 S   0  0  0  0  0  0  0  2  0  0  0  0
    1.4289    0.2062    0.0000 C   0  0  0  0  0  0  0  2  0  0  0  0
   -0.7145   -0.2062    0.0000 O   0  0  0  0  0  0  0  2  0  0  0  0
   -1.4289    0.2062    0.0000 C   0  0  0  0  0  0  0  2  0  0  0  0
    0.0000   -0.6188    0.0000 O   0  0  0  0  0  0  0  2  0  0  0  0
    0.7145   -1.0313    0.0000 C   0  0  0  0  0  0  0  2  0  0  0  0
  1  2  2  0        0
  2  3  1  0        0
  3  4  1  0        0
  2  5  1  0        0
  5  6  1  0        0
  2  7  1  0        0
  7  8  1  0        0
M  END
>  <CAS RN>
2953299

>  <SMILES>
S=P(SC)(OC)OC

>  <Measured or Estimated Log10(mmol/L)>
-0.8960598

$$$$

CDXL12

 10 10  0  0  0  0  0  0  0  0999 V2000
    1.7862   -0.4125    0.0000 O   0  0  0  0  0  0  0  2  0  0  0  0
    1.0717   -0.8250    0.0000 C   0  0  0  0  0  0  0  2  0  0  0  0
    0.3572   -0.4125    0.0000 C   0  0  0  0  0  0  0  2  0  0  0  0
    0.3572    0.4125    0.0000 C   0  0  0  0  0  0  0  2  0  0  0  0
   -0.3572    0.8250    0.0000 C   0  0  0  0  0  0  0  2  0  0  0  0
   -1.0717    0.4125    0.0000 C   0  0  0  0  0  0  0  2  0  0  0  0
   -1.7862    0.8250    0.0000 O   0  0  0  0  0  0  0  2  0  0  0  0
   -1.0717   -0.4125    0.0000 C   0  0  0  0  0  0  0  2  0  0  0  0
   -1.7862   -0.8250    0.0000 Br  0  0  0  0  0  0  0  2  0  0  0  0
   -0.3572   -0.8250    0.0000 C   0  0  0  0  0  0  0  2  0  0  0  0
  1  2  2  0        0
  2  3  1  0        0
  3  4  4  0        0
  4  5  4  0        0
  5  6  4  0        0
  6  7  1  0        0
  6  8  4  0        0
  8  9  1  0        0
  8 10  4  0        0
  3 10  4  0        0
M  END
>  <CAS RN>
2973786

>  <SMILES>
O=Cc1ccc(O)c(Br)c1

>  <Measured or Estimated Log10(mmol/L)>
-0.282058598

$$$$

CDXL12

 24 26  0  0  0  0  0  0  0  0999 V2000
   -3.0831    0.7313    0.0000 N   0  0  0  0  0  0  0  2  0  0  0  0
   -3.0831    1.5563    0.0000 Cl  0  0  0  0  0  0  0  2  0  0  0  0
   -2.3686    1.1438    0.0000 C   0  0  0  0  0  0  0  2  0  0  0  0
   -1.6542    0.7313    0.0000 C   0  0  0  0  0  0  0  2  0  0  0  0
   -1.5679   -0.0892    0.0000 O   0  0  0  0  0  0  0  2  0  0  0  0
   -0.7610   -0.2607    0.0000 C   0  0  0  0  0  0  0  2  0  0  0  0
   -0.4254   -1.0144    0.0000 O   0  0  0  0  0  0  0  2  0  0  0  0
   -0.3485    0.4537    0.0000 N   0  0  0  0  0  0  0  2  0  0  0  0
    0.4720    0.5400    0.0000 N   0  0  0  0  0  0  0  2  0  0  0  0
    0.9569   -0.1275    0.0000 C   0  0  0  0  0  0  0  2  0  0  0  0
    1.7774   -0.0412    0.0000 C   0  0  0  0  0  0  0  2  0  0  0  0
    2.1899    0.6732    0.0000 C   0  0  0  0  0  0  0  2  0  0  0  0
    2.9969    0.5017    0.0000 C   0  0  0  0  0  0  0  2  0  0  0  0
    3.0831   -0.3188    0.0000 C   0  0  0  0  0  0  0  2  0  0  0  0
    3.7976   -0.7313    0.0000 N   0  0  0  0  0  0  0  2  0  0  0  0
    3.7976   -1.5563    0.0000 O   0  0  0  0  0  0  0  2  0  0  0  0
    4.5121   -0.3188    0.0000 O   0  0  0  0  0  0  0  2  0  0  0  0
    2.3294   -0.6543    0.0000 O   0  0  0  0  0  0  0  2  0  0  0  0
   -0.9005    1.0668    0.0000 C   0  0  0  0  0  0  0  2  0  0  0  0
   -3.0831   -0.0937    0.0000 C   0  0  0  0  0  0  0  2  0  0  0  0
   -3.7976   -0.5062    0.0000 C   0  0  0  0  0  0  0  2  0  0  0  0
   -4.5121   -0.0937    0.0000 O   0  0  0  0  0  0  0  2  0  0  0  0
   -4.5121    0.7313    0.0000 C   0  0  0  0  0  0  0  2  0  0  0  0
   -3.7976    1.1438    0.0000 C   0  0  0  0  0  0  0  2  0  0  0  0
  1  2  1  0        0
  1  3  1  0        0
  3  4  1  0        0
  4  5  1  0        0
  5  6  1  0        0
  6  7  2  0        0
  6  8  1  0        0
  8  9  1  0        0
  9 10  2  0        0
 10 11  1  0        0
 11 12  4  0        0
 12 13  4  0        0
 13 14  4  0        0
 14 15  1  0        0
 15 16  2  0        0
 15 17  2  0        0
 14 18  4  0        0
 11 18  4  0        0
  8 19  1  0        0
  4 19  1  0        0
  1 20  1  0        0
 20 21  1  0        0
 21 22  1  0        0
 22 23  1  0        0
 23 24  1  0        0
  1 24  1  0        0
M  END
>  <CAS RN>
3031514

>  <SMILES>
N1(Cl)(CC2OC(=O)N(N=Cc3ccc(N(=O)=O)o3)C2)CCOCC1

>  <Measured or Estimated Log10(mmol/L)>
-0.491537976

$$$$

CDXL12

 31 30  0  0  0  0  0  0  0  0999 V2000
  -10.7171   -0.2062    0.0000 C   0  0  0  0  0  0  0  2  0  0  0  0
  -10.0026    0.2062    0.0000 C   0  0  0  0  0  0  0  2  0  0  0  0
   -9.2881   -0.2062    0.0000 C   0  0  0  0  0  0  0  2  0  0  0  0
   -8.5737    0.2062    0.0000 C   0  0  0  0  0  0  0  2  0  0  0  0
   -7.8592   -0.2062    0.0000 C   0  0  0  0  0  0  0  2  0  0  0  0
   -7.1447    0.2062    0.0000 C   0  0  0  0  0  0  0  2  0  0  0  0
   -6.4302   -0.2062    0.0000 C   0  0  0  0  0  0  0  2  0  0  0  0
   -5.7158    0.2062    0.0000 C   0  0  0  0  0  0  0  2  0  0  0  0
   -5.0013   -0.2062    0.0000 C   0  0  0  0  0  0  0  2  0  0  0  0
   -4.2868    0.2062    0.0000 C   0  0  0  0  0  0  0  2  0  0  0  0
   -3.5724   -0.2062    0.0000 C   0  0  0  0  0  0  0  2  0  0  0  0
   -2.8579    0.2062    0.0000 C   0  0  0  0  0  0  0  2  0  0  0  0
   -2.1434   -0.2062    0.0000 O   0  0  0  0  0  0  0  2  0  0  0  0
   -1.4289    0.2062    0.0000 C   0  0  0  0  0  0  0  2  0  0  0  0
   -0.7145   -0.2062    0.0000 C   0  0  0  0  0  0  0  2  0  0  0  0
    0.0000    0.2062    0.0000 O   0  0  0  0  0  0  0  2  0  0  0  0
    0.7145   -0.2062    0.0000 C   0  0  0  0  0  0  0  2  0  0  0  0
    1.4289    0.2062    0.0000 C   0  0  0  0  0  0  0  2  0  0  0  0
    2.1434   -0.2062    0.0000 O   0  0  0  0  0  0  0  2  0  0  0  0
    2.8579    0.2062    0.0000 C   0  0  0  0  0  0  0  2  0  0  0  0
    3.5724   -0.2062    0.0000 C   0  0  0  0  0  0  0  2  0  0  0  0
    4.2868    0.2062    0.0000 O   0  0  0  0  0  0  0  2  0  0  0  0
    5.0013   -0.2062    0.0000 C   0  0  0  0  0  0  0  2  0  0  0  0
    5.7158    0.2062    0.0000 C   0  0  0  0  0  0  0  2  0  0  0  0
    6.4302   -0.2062    0.0000 O   0  0  0  0  0  0  0  2  0  0  0  0
    7.1447    0.2062    0.0000 C   0  0  0  0  0  0  0  2  0  0  0  0
    7.8592   -0.2062    0.0000 C   0  0  0  0  0  0  0  2  0  0  0  0
    8.5737    0.2062    0.0000 O   0  0  0  0  0  0  0  2  0  0  0  0
    9.2881   -0.2062    0.0000 C   0  0  0  0  0  0  0  2  0  0  0  0
   10.0026    0.2062    0.0000 C   0  0  0  0  0  0  0  2  0  0  0  0
   10.7171   -0.2062    0.0000 O   0  0  0  0  0  0  0  2  0  0  0  0
  1  2  1  0        0
  2  3  1  0        0
  3  4  1  0        0
  4  5  1  0        0
  5  6  1  0        0
  6  7  1  0        0
  7  8  1  0        0
  8  9  1  0        0
  9 10  1  0        0
 10 11  1  0        0
 11 12  1  0        0
 12 13  1  0        0
 13 14  1  0        0
 14 15  1  0        0
 15 16  1  0        0
 16 17  1  0        0
 17 18  1  0        0
 18 19  1  0        0
 19 20  1  0        0
 20 21  1  0        0
 21 22  1  0        0
 22 23  1  0        0
 23 24  1  0        0
 24 25  1  0        0
 25 26  1  0        0
 26 27  1  0        0
 27 28  1  0        0
 28 29  1  0        0
 29 30  1  0        0
 30 31  1  0        0
M  END
>  <CAS RN>
3055967

>  <SMILES>
CCCCCCCCCCCCOCCOCCOCCOCCOCCOCCO

>  <Measured or Estimated Log10(mmol/L)>
-2.784614392

$$$$

CDXL12

 40 39  0  0  0  0  0  0  0  0999 V2000
  -13.9322   -0.2062    0.0000 C   0  0  0  0  0  0  0  2  0  0  0  0
  -13.2177    0.2062    0.0000 C   0  0  0  0  0  0  0  2  0  0  0  0
  -12.5032   -0.2062    0.0000 C   0  0  0  0  0  0  0  2  0  0  0  0
  -11.7888    0.2062    0.0000 C   0  0  0  0  0  0  0  2  0  0  0  0
  -11.0743   -0.2062    0.0000 C   0  0  0  0  0  0  0  2  0  0  0  0
  -10.3598    0.2062    0.0000 C   0  0  0  0  0  0  0  2  0  0  0  0
   -9.6454   -0.2062    0.0000 C   0  0  0  0  0  0  0  2  0  0  0  0
   -8.9309    0.2062    0.0000 C   0  0  0  0  0  0  0  2  0  0  0  0
   -8.2164   -0.2062    0.0000 C   0  0  0  0  0  0  0  2  0  0  0  0
   -7.5019    0.2062    0.0000 C   0  0  0  0  0  0  0  2  0  0  0  0
   -6.7875   -0.2062    0.0000 C   0  0  0  0  0  0  0  2  0  0  0  0
   -6.0730    0.2062    0.0000 C   0  0  0  0  0  0  0  2  0  0  0  0
   -5.3585   -0.2062    0.0000 O   0  0  0  0  0  0  0  2  0  0  0  0
   -4.6441    0.2062    0.0000 C   0  0  0  0  0  0  0  2  0  0  0  0
   -3.9296   -0.2062    0.0000 C   0  0  0  0  0  0  0  2  0  0  0  0
   -3.2151    0.2062    0.0000 O   0  0  0  0  0  0  0  2  0  0  0  0
   -2.5006   -0.2062    0.0000 C   0  0  0  0  0  0  0  2  0  0  0  0
   -1.7862    0.2062    0.0000 C   0  0  0  0  0  0  0  2  0  0  0  0
   -1.0717   -0.2062    0.0000 O   0  0  0  0  0  0  0  2  0  0  0  0
   -0.3572    0.2062    0.0000 C   0  0  0  0  0  0  0  2  0  0  0  0
    0.3572   -0.2062    0.0000 C   0  0  0  0  0  0  0  2  0  0  0  0
    1.0717    0.2062    0.0000 O   0  0  0  0  0  0  0  2  0  0  0  0
    1.7862   -0.2062    0.0000 C   0  0  0  0  0  0  0  2  0  0  0  0
    2.5006    0.2062    0.0000 C   0  0  0  0  0  0  0  2  0  0  0  0
    3.2151   -0.2062    0.0000 O   0  0  0  0  0  0  0  2  0  0  0  0
    3.9296    0.2062    0.0000 C   0  0  0  0  0  0  0  2  0  0  0  0
    4.6441   -0.2062    0.0000 C   0  0  0  0  0  0  0  2  0  0  0  0
    5.3585    0.2062    0.0000 O   0  0  0  0  0  0  0  2  0  0  0  0
    6.0730   -0.2062    0.0000 C   0  0  0  0  0  0  0  2  0  0  0  0
    6.7875    0.2062    0.0000 C   0  0  0  0  0  0  0  2  0  0  0  0
    7.5019   -0.2062    0.0000 O   0  0  0  0  0  0  0  2  0  0  0  0
    8.2164    0.2062    0.0000 C   0  0  0  0  0  0  0  2  0  0  0  0
    8.9309   -0.2062    0.0000 C   0  0  0  0  0  0  0  2  0  0  0  0
    9.6454    0.2062    0.0000 O   0  0  0  0  0  0  0  2  0  0  0  0
   10.3598   -0.2062    0.0000 C   0  0  0  0  0  0  0  2  0  0  0  0
   11.0743    0.2062    0.0000 C   0  0  0  0  0  0  0  2  0  0  0  0
   11.7888   -0.2062    0.0000 O   0  0  0  0  0  0  0  2  0  0  0  0
   12.5032    0.2062    0.0000 C   0  0  0  0  0  0  0  2  0  0  0  0
   13.2177   -0.2062    0.0000 C   0  0  0  0  0  0  0  2  0  0  0  0
   13.9322    0.2062    0.0000 O   0  0  0  0  0  0  0  2  0  0  0  0
  1  2  1  0        0
  2  3  1  0        0
  3  4  1  0        0
  4  5  1  0        0
  5  6  1  0        0
  6  7  1  0        0
  7  8  1  0        0
  8  9  1  0        0
  9 10  1  0        0
 10 11  1  0        0
 11 12  1  0        0
 12 13  1  0        0
 13 14  1  0        0
 14 15  1  0        0
 15 16  1  0        0
 16 17  1  0        0
 17 18  1  0        0
 18 19  1  0        0
 19 20  1  0        0
 20 21  1  0        0
 21 22  1  0        0
 22 23  1  0        0
 23 24  1  0        0
 24 25  1  0        0
 25 26  1  0        0
 26 27  1  0        0
 27 28  1  0        0
 28 29  1  0        0
 29 30  1  0        0
 30 31  1  0        0
 31 32  1  0        0
 32 33  1  0        0
 33 34  1  0        0
 34 35  1  0        0
 35 36  1  0        0
 36 37  1  0        0
 37 38  1  0        0
 38 39  1  0        0
 39 40  1  0        0
M  END
>  <CAS RN>
3055990

>  <SMILES>
CCCCCCCCCCCCOCCOCCOCCOCCOCCOCCOCCOCCOCCO

>  <Measured or Estimated Log10(mmol/L)>
-2.55870558

$$$$

CDXL12

 49 48  0  0  0  0  0  0  0  0999 V2000
  -17.1473   -0.2062    0.0000 C   0  0  0  0  0  0  0  2  0  0  0  0
  -16.4328    0.2062    0.0000 C   0  0  0  0  0  0  0  2  0  0  0  0
  -15.7184   -0.2062    0.0000 C   0  0  0  0  0  0  0  2  0  0  0  0
  -15.0039    0.2062    0.0000 C   0  0  0  0  0  0  0  2  0  0  0  0
  -14.2894   -0.2062    0.0000 C   0  0  0  0  0  0  0  2  0  0  0  0
  -13.5749    0.2062    0.0000 C   0  0  0  0  0  0  0  2  0  0  0  0
  -12.8605   -0.2062    0.0000 C   0  0  0  0  0  0  0  2  0  0  0  0
  -12.1460    0.2062    0.0000 C   0  0  0  0  0  0  0  2  0  0  0  0
  -11.4315   -0.2062    0.0000 C   0  0  0  0  0  0  0  2  0  0  0  0
  -10.7171    0.2062    0.0000 C   0  0  0  0  0  0  0  2  0  0  0  0
  -10.0026   -0.2062    0.0000 C   0  0  0  0  0  0  0  2  0  0  0  0
   -9.2881    0.2062    0.0000 C   0  0  0  0  0  0  0  2  0  0  0  0
   -8.5737   -0.2062    0.0000 O   0  0  0  0  0  0  0  2  0  0  0  0
   -7.8592    0.2062    0.0000 C   0  0  0  0  0  0  0  2  0  0  0  0
   -7.1447   -0.2062    0.0000 C   0  0  0  0  0  0  0  2  0  0  0  0
   -6.4302    0.2062    0.0000 O   0  0  0  0  0  0  0  2  0  0  0  0
   -5.7158   -0.2062    0.0000 C   0  0  0  0  0  0  0  2  0  0  0  0
   -5.0013    0.2062    0.0000 C   0  0  0  0  0  0  0  2  0  0  0  0
   -4.2868   -0.2062    0.0000 O   0  0  0  0  0  0  0  2  0  0  0  0
   -3.5724    0.2062    0.0000 C   0  0  0  0  0  0  0  2  0  0  0  0
   -2.8579   -0.2062    0.0000 C   0  0  0  0  0  0  0  2  0  0  0  0
   -2.1434    0.2062    0.0000 O   0  0  0  0  0  0  0  2  0  0  0  0
   -1.4289   -0.2062    0.0000 C   0  0  0  0  0  0  0  2  0  0  0  0
   -0.7145    0.2062    0.0000 C   0  0  0  0  0  0  0  2  0  0  0  0
    0.0000   -0.2062    0.0000 O   0  0  0  0  0  0  0  2  0  0  0  0
    0.7145    0.2062    0.0000 C   0  0  0  0  0  0  0  2  0  0  0  0
    1.4289   -0.2062    0.0000 C   0  0  0  0  0  0  0  2  0  0  0  0
    2.1434    0.2062    0.0000 O   0  0  0  0  0  0  0  2  0  0  0  0
    2.8579   -0.2062    0.0000 C   0  0  0  0  0  0  0  2  0  0  0  0
    3.5724    0.2062    0.0000 C   0  0  0  0  0  0  0  2  0  0  0  0
    4.2868   -0.2062    0.0000 O   0  0  0  0  0  0  0  2  0  0  0  0
    5.0013    0.2062    0.0000 C   0  0  0  0  0  0  0  2  0  0  0  0
    5.7158   -0.2062    0.0000 C   0  0  0  0  0  0  0  2  0  0  0  0
    6.4302    0.2062    0.0000 O   0  0  0  0  0  0  0  2  0  0  0  0
    7.1447   -0.2062    0.0000 C   0  0  0  0  0  0  0  2  0  0  0  0
    7.8592    0.2062    0.0000 C   0  0  0  0  0  0  0  2  0  0  0  0
    8.5737   -0.2062    0.0000 O   0  0  0  0  0  0  0  2  0  0  0  0
    9.2881    0.2062    0.0000 C   0  0  0  0  0  0  0  2  0  0  0  0
   10.0026   -0.2062    0.0000 C   0  0  0  0  0  0  0  2  0  0  0  0
   10.7171    0.2062    0.0000 O   0  0  0  0  0  0  0  2  0  0  0  0
   11.4315   -0.2062    0.0000 C   0  0  0  0  0  0  0  2  0  0  0  0
   12.1460    0.2062    0.0000 C   0  0  0  0  0  0  0  2  0  0  0  0
   12.8605   -0.2062    0.0000 O   0  0  0  0  0  0  0  2  0  0  0  0
   13.5749    0.2062    0.0000 C   0  0  0  0  0  0  0  2  0  0  0  0
   14.2894   -0.2062    0.0000 C   0  0  0  0  0  0  0  2  0  0  0  0
   15.0039    0.2062    0.0000 O   0  0  0  0  0  0  0  2  0  0  0  0
   15.7184   -0.2062    0.0000 C   0  0  0  0  0  0  0  2  0  0  0  0
   16.4328    0.2062    0.0000 C   0  0  0  0  0  0  0  2  0  0  0  0
   17.1473   -0.2062    0.0000 O   0  0  0  0  0  0  0  2  0  0  0  0
  1  2  1  0        0
  2  3  1  0        0
  3  4  1  0        0
  4  5  1  0        0
  5  6  1  0        0
  6  7  1  0        0
  7  8  1  0        0
  8  9  1  0        0
  9 10  1  0        0
 10 11  1  0        0
 11 12  1  0        0
 12 13  1  0        0
 13 14  1  0        0
 14 15  1  0        0
 15 16  1  0        0
 16 17  1  0        0
 17 18  1  0        0
 18 19  1  0        0
 19 20  1  0        0
 20 21  1  0        0
 21 22  1  0        0
 22 23  1  0        0
 23 24  1  0        0
 24 25  1  0        0
 25 26  1  0        0
 26 27  1  0        0
 27 28  1  0        0
 28 29  1  0        0
 29 30  1  0        0
 30 31  1  0        0
 31 32  1  0        0
 32 33  1  0        0
 33 34  1  0        0
 34 35  1  0        0
 35 36  1  0        0
 36 37  1  0        0
 37 38  1  0        0
 38 39  1  0        0
 39 40  1  0        0
 40 41  1  0        0
 41 42  1  0        0
 42 43  1  0        0
 43 44  1  0        0
 44 45  1  0        0
 45 46  1  0        0
 46 47  1  0        0
 47 48  1  0        0
 48 49  1  0        0
M  END
>  <CAS RN>
3056006

>  <SMILES>
CCCCCCCCCCCCOCCOCCOCCOCCOCCOCCOCCOCCOCCOCCOCCOCCO

>  <Measured or Estimated Log10(mmol/L)>
-2.708162811

$$$$

CDXL12

 27 26  0  0  0  0  0  0  0  0999 V2000
    3.2151   -0.7145    0.0000 Sn  0  0  0  0  0  0  0  2  0  0  0  0
    3.6276   -1.4289    0.0000 C   0  0  0  0  0  0  0  2  0  0  0  0
    4.4526   -1.4289    0.0000 C   0  0  0  0  0  0  0  2  0  0  0  0
    4.8651   -2.1434    0.0000 C   0  0  0  0  0  0  0  2  0  0  0  0
    5.6901   -2.1434    0.0000 C   0  0  0  0  0  0  0  2  0  0  0  0
    3.9296   -0.3020    0.0000 C   0  0  0  0  0  0  0  2  0  0  0  0
    4.6441   -0.7145    0.0000 C   0  0  0  0  0  0  0  2  0  0  0  0
    5.3585   -0.3020    0.0000 C   0  0  0  0  0  0  0  2  0  0  0  0
    6.0730   -0.7145    0.0000 C   0  0  0  0  0  0  0  2  0  0  0  0
    2.8026    0.0000    0.0000 C   0  0  0  0  0  0  0  2  0  0  0  0
    3.2151    0.7145    0.0000 C   0  0  0  0  0  0  0  2  0  0  0  0
    2.8026    1.4289    0.0000 C   0  0  0  0  0  0  0  2  0  0  0  0
    3.2151    2.1434    0.0000 C   0  0  0  0  0  0  0  2  0  0  0  0
    2.5006   -1.1270    0.0000 O   0  0  0  0  0  0  0  2  0  0  0  0
    1.7862   -0.7145    0.0000 C   0  0  0  0  0  0  0  2  0  0  0  0
    1.7862    0.1105    0.0000 O   0  0  0  0  0  0  0  2  0  0  0  0
    1.0717   -1.1270    0.0000 C   0  0  0  0  0  0  0  2  0  0  0  0
    0.3572   -0.7145    0.0000 C   0  0  0  0  0  0  0  2  0  0  0  0
   -0.3572   -1.1270    0.0000 C   0  0  0  0  0  0  0  2  0  0  0  0
   -1.0717   -0.7145    0.0000 C   0  0  0  0  0  0  0  2  0  0  0  0
   -1.7862   -1.1270    0.0000 C   0  0  0  0  0  0  0  2  0  0  0  0
   -2.5006   -0.7145    0.0000 C   0  0  0  0  0  0  0  2  0  0  0  0
   -3.2151   -1.1270    0.0000 C   0  0  0  0  0  0  0  2  0  0  0  0
   -3.9296   -0.7145    0.0000 C   0  0  0  0  0  0  0  2  0  0  0  0
   -4.6441   -1.1270    0.0000 C   0  0  0  0  0  0  0  2  0  0  0  0
   -5.3585   -0.7145    0.0000 C   0  0  0  0  0  0  0  2  0  0  0  0
   -6.0730   -1.1270    0.0000 C   0  0  0  0  0  0  0  2  0  0  0  0
  1  2  1  0        0
  2  3  1  0        0
  3  4  1  0        0
  4  5  1  0        0
  1  6  1  0        0
  6  7  1  0        0
  7  8  1  0        0
  8  9  1  0        0
  1 10  1  0        0
 10 11  1  0        0
 11 12  1  0        0
 12 13  1  0        0
  1 14  1  0        0
 14 15  1  0        0
 15 16  2  0        0
 15 17  1  0        0
 17 18  1  0        0
 18 19  1  0        0
 19 20  1  0        0
 20 21  1  0        0
 21 22  1  0        0
 22 23  1  0        0
 23 24  1  0        0
 24 25  1  0        0
 25 26  1  0        0
 26 27  1  0        0
M  END
>  <CAS RN>
3090366

>  <SMILES>
[Sn](CCCC)(CCCC)(CCCC)OC(=O)CCCCCCCCCCC

>  <Measured or Estimated Log10(mmol/L)>
-5.00838013

$$$$

CDXL12

 20 20  0  0  0  0  0  0  0  0999 V2000
   -0.0000   -0.4125    0.0000 C   0  0  0  0  0  0  0  2  0  0  0  0
   -0.7145    0.0000    0.0000 C   0  0  0  0  0  0  0  2  0  0  0  0
   -1.4289   -0.4125    0.0000 C   0  0  0  0  0  0  0  2  0  0  0  0
   -1.4289   -1.2375    0.0000 O   0  0  0  0  0  0  0  2  0  0  0  0
   -2.1434   -0.0000    0.0000 O   0  0  0  0  0  0  0  2  0  0  0  0
   -2.8579   -0.4125    0.0000 C   0  0  0  0  0  0  0  2  0  0  0  0
   -3.5724   -0.0000    0.0000 C   0  0  0  0  0  0  0  2  0  0  0  0
   -4.2868   -0.4125    0.0000 C   0  0  0  0  0  0  0  2  0  0  0  0
   -5.0013   -0.0000    0.0000 C   0  0  0  0  0  0  0  2  0  0  0  0
   -0.7145    0.8250    0.0000 C   0  0  0  0  0  0  0  2  0  0  0  0
   -0.0000    1.2375    0.0000 C   0  0  0  0  0  0  0  2  0  0  0  0
    0.7145    0.8250    0.0000 C   0  0  0  0  0  0  0  2  0  0  0  0
    0.7145   -0.0000    0.0000 C   0  0  0  0  0  0  0  2  0  0  0  0
    1.4289   -0.4125    0.0000 C   0  0  0  0  0  0  0  2  0  0  0  0
    1.4289   -1.2375    0.0000 O   0  0  0  0  0  0  0  2  0  0  0  0
    2.1434   -0.0000    0.0000 O   0  0  0  0  0  0  0  2  0  0  0  0
    2.8579   -0.4125    0.0000 C   0  0  0  0  0  0  0  2  0  0  0  0
    3.5724   -0.0000    0.0000 C   0  0  0  0  0  0  0  2  0  0  0  0
    4.2868   -0.4125    0.0000 C   0  0  0  0  0  0  0  2  0  0  0  0
    5.0013   -0.0000    0.0000 C   0  0  0  0  0  0  0  2  0  0  0  0
  1  2  4  0        0
  2  3  1  0        0
  3  4  2  0        0
  3  5  1  0        0
  5  6  1  0        0
  6  7  1  0        0
  7  8  1  0        0
  8  9  1  0        0
  2 10  4  0        0
 10 11  4  0        0
 11 12  4  0        0
 12 13  4  0        0
  1 13  4  0        0
 13 14  1  0        0
 14 15  2  0        0
 14 16  1  0        0
 16 17  1  0        0
 17 18  1  0        0
 18 19  1  0        0
 19 20  1  0        0
M  END
>  <CAS RN>
3126907

>  <SMILES>
c1c(C(=O)OCCCC)cccc1C(=O)OCCCC

>  <Measured or Estimated Log10(mmol/L)>
-1.876386372

$$$$

CDXL12

 11 11  0  0  0  0  0  0  0  0999 V2000
   -1.0717    1.2375    0.0000 O   0  0  0  0  0  0  0  2  0  0  0  0
   -1.0717    0.4125    0.0000 N   0  0  0  0  0  0  0  2  0  0  0  0
   -1.7862    0.0000    0.0000 O   0  0  0  0  0  0  0  2  0  0  0  0
   -0.3572    0.0000    0.0000 C   0  0  0  0  0  0  0  2  0  0  0  0
    0.3572    0.4125    0.0000 C   0  0  0  0  0  0  0  2  0  0  0  0
    1.0717   -0.0000    0.0000 C   0  0  0  0  0  0  0  2  0  0  0  0
    1.0717   -0.8250    0.0000 C   0  0  0  0  0  0  0  2  0  0  0  0
    0.3572   -1.2375    0.0000 C   0  0  0  0  0  0  0  2  0  0  0  0
   -0.3572   -0.8250    0.0000 C   0  0  0  0  0  0  0  2  0  0  0  0
    1.7862    0.4125    0.0000 Cl  0  0  0  0  0  0  0  2  0  0  0  0
    0.3572    1.2375    0.0000 Cl  0  0  0  0  0  0  0  2  0  0  0  0
  1  2  2  0        0
  2  3  2  0        0
  2  4  1  0        0
  4  5  4  0        0
  5  6  4  0        0
  6  7  4  0        0
  7  8  4  0        0
  8  9  4  0        0
  4  9  4  0        0
  6 10  1  0        0
  5 11  1  0        0
M  END
>  <CAS RN>
3209221

>  <SMILES>
O=N(=O)c1c(c(ccc1)Cl)Cl

>  <Measured or Estimated Log10(mmol/L)>
-1.6600542

$$$$

CDXL12

  9  8  0  0  0  0  0  0  0  0999 V2000
    1.4289    0.6187    0.0000 O   0  0  0  0  0  0  0  2  0  0  0  0
    1.4289   -0.2062    0.0000 N   0  0  0  0  0  0  0  2  0  0  0  0
    2.1434   -0.6188    0.0000 O   0  0  0  0  0  0  0  2  0  0  0  0
    0.7145   -0.6188    0.0000 O   0  0  0  0  0  0  0  2  0  0  0  0
   -0.0000   -0.2062    0.0000 Cu  0  0  0  0  0  0  0  2  0  0  0  0
   -0.7145   -0.6188    0.0000 O   0  0  0  0  0  0  0  2  0  0  0  0
   -1.4289   -0.2062    0.0000 N   0  0  0  0  0  0  0  2  0  0  0  0
   -2.1434   -0.6187    0.0000 O   0  0  0  0  0  0  0  2  0  0  0  0
   -1.4289    0.6188    0.0000 O   0  0  0  0  0  0  0  2  0  0  0  0
  1  2  2  0        0
  2  3  2  0        0
  2  4  1  0        0
  4  5  1  0        0
  5  6  1  0        0
  6  7  1  0        0
  7  8  2  0        0
  7  9  2  0        0
M  END
>  <CAS RN>
3251238

>  <SMILES>
O=N(=O)O[Cu]ON(=O)=O

>  <Measured or Estimated Log10(mmol/L)>
-3.475427571

$$$$

CDXL12

  9 10  0  0  0  0  0  0  0  0999 V2000
    1.3492    0.0000    0.0000 C   0  0  0  0  0  0  0  2  0  0  0  0
    0.8643    0.6674    0.0000 C   0  0  0  0  0  0  0  2  0  0  0  0
    0.0797    0.4125    0.0000 C   0  0  0  0  0  0  0  2  0  0  0  0
   -0.6348    0.8250    0.0000 C   0  0  0  0  0  0  0  2  0  0  0  0
   -1.3492    0.4125    0.0000 C   0  0  0  0  0  0  0  2  0  0  0  0
   -1.3492   -0.4125    0.0000 C   0  0  0  0  0  0  0  2  0  0  0  0
   -0.6348   -0.8250    0.0000 C   0  0  0  0  0  0  0  2  0  0  0  0
    0.0797   -0.4125    0.0000 C   0  0  0  0  0  0  0  2  0  0  0  0
    0.8643   -0.6674    0.0000 C   0  0  0  0  0  0  0  2  0  0  0  0
  1  2  1  0        0
  2  3  1  0        0
  3  4  1  0        0
  4  5  1  0        0
  5  6  1  0        0
  6  7  1  0        0
  7  8  1  0        0
  3  8  1  0        0
  8  9  1  0        0
  1  9  1  0        0
M  END
>  <CAS RN>
3296502

>  <SMILES>
C1CC2CCCCC2C1

>  <Measured or Estimated Log10(mmol/L)>
-1.53

$$$$

CDXL12

 27 28  0  0  0  0  0  0  0  0999 V2000
    4.2868   -0.4125    0.0000 O   0  0  0  0  0  0  0  2  0  0  0  0
    3.5724    0.0000    0.0000 P   0  0  0  0  0  0  0  2  0  0  0  0
    3.5724   -0.8250    0.0000 O   0  0  0  0  0  0  0  2  0  0  0  0
    4.2868   -1.2375    0.0000 C   0  0  0  0  0  0  0  2  0  0  0  0
    2.8579   -0.4125    0.0000 O   0  0  0  0  0  0  0  2  0  0  0  0
    2.1434   -0.0000    0.0000 C   0  0  0  0  0  0  0  2  0  0  0  0
    1.4289   -0.4125    0.0000 C   0  0  0  0  0  0  0  2  0  0  0  0
    0.7145    0.0000    0.0000 C   0  0  0  0  0  0  0  2  0  0  0  0
    0.7145    0.8250    0.0000 C   0  0  0  0  0  0  0  2  0  0  0  0
    0.0000    1.2375    0.0000 S   0  0  0  0  0  0  0  2  0  0  0  0
   -0.7145    0.8250    0.0000 C   0  0  0  0  0  0  0  2  0  0  0  0
   -0.7145    0.0000    0.0000 C   0  0  0  0  0  0  0  2  0  0  0  0
   -1.4289   -0.4125    0.0000 C   0  0  0  0  0  0  0  2  0  0  0  0
   -2.1434    0.0000    0.0000 C   0  0  0  0  0  0  0  2  0  0  0  0
   -2.8579   -0.4125    0.0000 O   0  0  0  0  0  0  0  2  0  0  0  0
   -3.5724    0.0000    0.0000 P   0  0  0  0  0  0  0  2  0  0  0  0
   -4.2868   -0.4125    0.0000 O   0  0  0  0  0  0  0  2  0  0  0  0
   -5.0013    0.0000    0.0000 C   0  0  0  0  0  0  0  2  0  0  0  0
   -3.5724   -0.8250    0.0000 O   0  0  0  0  0  0  0  2  0  0  0  0
   -4.2868   -1.2375    0.0000 C   0  0  0  0  0  0  0  2  0  0  0  0
   -3.5724    0.8250    0.0000 S   0  0  0  0  0  0  0  2  0  0  0  0
   -2.1434    0.8250    0.0000 C   0  0  0  0  0  0  0  2  0  0  0  0
   -1.4289    1.2375    0.0000 C   0  0  0  0  0  0  0  2  0  0  0  0
    1.4289    1.2375    0.0000 C   0  0  0  0  0  0  0  2  0  0  0  0
    2.1434    0.8250    0.0000 C   0  0  0  0  0  0  0  2  0  0  0  0
    3.5724    0.8250    0.0000 S   0  0  0  0  0  0  0  2  0  0  0  0
    5.0013   -0.0000    0.0000 C   0  0  0  0  0  0  0  2  0  0  0  0
  1  2  1  0        0
  2  3  1  0        0
  3  4  1  0        0
  2  5  1  0        0
  5  6  1  0        0
  6  7  4  0        0
  7  8  4  0        0
  8  9  4  0        0
  9 10  1  0        0
 10 11  1  0        0
 11 12  4  0        0
 12 13  4  0        0
 13 14  4  0        0
 14 15  1  0        0
 15 16  1  0        0
 16 17  1  0        0
 17 18  1  0        0
 16 19  1  0        0
 19 20  1  0        0
 16 21  2  0        0
 14 22  4  0        0
 22 23  4  0        0
 11 23  4  0        0
  9 24  4  0        0
 24 25  4  0        0
  6 25  4  0        0
  2 26  2  0        0
  1 27  1  0        0
M  END
>  <CAS RN>
3383968

>  <SMILES>
O(P(OC)(Oc1ccc(Sc2ccc(OP(OC)(OC)=S)cc2)cc1)=S)C

>  <Measured or Estimated Log10(mmol/L)>
-7.618357918

$$$$

CDXL12

 10 10  0  0  0  0  0  0  0  0999 V2000
    1.4289   -0.8250    0.0000 O   0  0  0  0  0  0  0  2  0  0  0  0
    0.7145   -0.4125    0.0000 C   0  0  0  0  0  0  0  2  0  0  0  0
    0.0000   -0.8250    0.0000 C   0  0  0  0  0  0  0  2  0  0  0  0
   -0.7145   -0.4125    0.0000 C   0  0  0  0  0  0  0  2  0  0  0  0
   -1.4289   -0.8250    0.0000 Cl  0  0  0  0  0  0  0  2  0  0  0  0
   -0.7145    0.4125    0.0000 C   0  0  0  0  0  0  0  2  0  0  0  0
   -1.4289    0.8250    0.0000 Cl  0  0  0  0  0  0  0  2  0  0  0  0
    0.0000    0.8250    0.0000 C   0  0  0  0  0  0  0  2  0  0  0  0
    0.7145    0.4125    0.0000 C   0  0  0  0  0  0  0  2  0  0  0  0
    1.4289    0.8250    0.0000 O   0  0  0  0  0  0  0  2  0  0  0  0
  1  2  1  0        0
  2  3  4  0        0
  3  4  4  0        0
  4  5  1  0        0
  4  6  4  0        0
  6  7  1  0        0
  6  8  4  0        0
  8  9  4  0        0
  2  9  4  0        0
  9 10  1  0        0
M  END
>  <CAS RN>
3428248

>  <SMILES>
Oc1cc(Cl)c(Cl)cc1O

>  <Measured or Estimated Log10(mmol/L)>
-1.777638151

$$$$

CDXL12

  8  7  0  0  0  0  0  0  0  0999 V2000
   -1.7862   -0.2062    0.0000 S   0  0  0  0  0  0  0  2  0  0  0  0
   -1.0717    0.2062    0.0000 C   0  0  0  0  0  0  0  2  0  0  0  0
   -0.3572   -0.2062    0.0000 C   0  0  0  0  0  0  0  2  0  0  0  0
   -0.3572   -1.0313    0.0000 O   0  0  0  0  0  0  0  2  0  0  0  0
    0.3572    0.2062    0.0000 C   0  0  0  0  0  0  0  2  0  0  0  0
    0.3572    1.0313    0.0000 O   0  0  0  0  0  0  0  2  0  0  0  0
    1.0717   -0.2062    0.0000 C   0  0  0  0  0  0  0  2  0  0  0  0
    1.7862    0.2062    0.0000 S   0  0  0  0  0  0  0  2  0  0  0  0
  1  2  1  0        0
  2  3  1  0        0
  3  4  1  6        0
  3  5  1  0        0
  5  6  1  6        0
  5  7  1  0        0
  7  8  1  0        0
M  END
>  <CAS RN>
3483123

>  <SMILES>
SC[C@@H](O)[C@H](O)CS

>  <Measured or Estimated Log10(mmol/L)>
-0.756861409

$$$$

CDXL12

 19 18  0  0  0  0  0  0  0  0999 V2000
    5.7158   -0.1510    0.0000 C   0  0  0  0  0  0  0  2  0  0  0  0
    5.0013   -0.5635    0.0000 C   0  0  0  0  0  0  0  2  0  0  0  0
    4.2868   -0.1510    0.0000 C   0  0  0  0  0  0  0  2  0  0  0  0
    3.5724   -0.5635    0.0000 C   0  0  0  0  0  0  0  2  0  0  0  0
    2.8579   -0.1510    0.0000 C   0  0  0  0  0  0  0  2  0  0  0  0
    2.1434   -0.5635    0.0000 C   0  0  0  0  0  0  0  2  0  0  0  0
    1.4289   -0.1510    0.0000 C   0  0  0  0  0  0  0  2  0  0  0  0
    0.7145   -0.5635    0.0000 C   0  0  0  0  0  0  0  2  0  0  0  0
    0.0000   -0.1510    0.0000 Sn  0  0  0  0  0  0  0  2  0  0  0  0
    0.4125    0.5635    0.0000 Cl  0  0  0  0  0  0  0  2  0  0  0  0
   -0.4125    0.5635    0.0000 Cl  0  0  0  0  0  0  0  2  0  0  0  0
   -0.7145   -0.5635    0.0000 C   0  0  0  0  0  0  0  2  0  0  0  0
   -1.4289   -0.1510    0.0000 C   0  0  0  0  0  0  0  2  0  0  0  0
   -2.1434   -0.5635    0.0000 C   0  0  0  0  0  0  0  2  0  0  0  0
   -2.8579   -0.1510    0.0000 C   0  0  0  0  0  0  0  2  0  0  0  0
   -3.5724   -0.5635    0.0000 C   0  0  0  0  0  0  0  2  0  0  0  0
   -4.2868   -0.1510    0.0000 C   0  0  0  0  0  0  0  2  0  0  0  0
   -5.0013   -0.5635    0.0000 C   0  0  0  0  0  0  0  2  0  0  0  0
   -5.7158   -0.1510    0.0000 C   0  0  0  0  0  0  0  2  0  0  0  0
  1  2  1  0        0
  2  3  1  0        0
  3  4  1  0        0
  4  5  1  0        0
  5  6  1  0        0
  6  7  1  0        0
  7  8  1  0        0
  8  9  1  0        0
  9 10  1  0        0
  9 11  1  0        0
  9 12  1  0        0
 12 13  1  0        0
 13 14  1  0        0
 14 15  1  0        0
 15 16  1  0        0
 16 17  1  0        0
 17 18  1  0        0
 18 19  1  0        0
M  END
>  <CAS RN>
3542367

>  <SMILES>
CCCCCCCC[Sn](Cl)(Cl)CCCCCCCC

>  <Measured or Estimated Log10(mmol/L)>
-4.92

$$$$

CDXL12

 18 19  0  0  0  0  0  0  0  0999 V2000
    2.1434   -0.8250    0.0000 Cl  0  0  0  0  0  0  0  2  0  0  0  0
    1.4289   -1.2375    0.0000 C   0  0  0  0  0  0  0  2  0  0  0  0
    1.4289   -2.0625    0.0000 Cl  0  0  0  0  0  0  0  2  0  0  0  0
    0.7145   -0.8250    0.0000 C   0  0  0  0  0  0  0  2  0  0  0  0
    0.0000   -1.2375    0.0000 C   0  0  0  0  0  0  0  2  0  0  0  0
    0.0000   -2.0625    0.0000 C   0  0  0  0  0  0  0  2  0  0  0  0
   -0.7145   -2.4750    0.0000 C   0  0  0  0  0  0  0  2  0  0  0  0
   -1.4289   -2.0625    0.0000 C   0  0  0  0  0  0  0  2  0  0  0  0
   -2.1434   -2.4750    0.0000 Cl  0  0  0  0  0  0  0  2  0  0  0  0
   -1.4289   -1.2375    0.0000 C   0  0  0  0  0  0  0  2  0  0  0  0
   -0.7145   -0.8250    0.0000 C   0  0  0  0  0  0  0  2  0  0  0  0
    0.7145   -0.0000    0.0000 C   0  0  0  0  0  0  0  2  0  0  0  0
    0.0000    0.4125    0.0000 C   0  0  0  0  0  0  0  2  0  0  0  0
    0.0000    1.2375    0.0000 C   0  0  0  0  0  0  0  2  0  0  0  0
    0.7145    1.6500    0.0000 C   0  0  0  0  0  0  0  2  0  0  0  0
    0.7145    2.4750    0.0000 Cl  0  0  0  0  0  0  0  2  0  0  0  0
    1.4289    1.2375    0.0000 C   0  0  0  0  0  0  0  2  0  0  0  0
    1.4289    0.4125    0.0000 C   0  0  0  0  0  0  0  2  0  0  0  0
  1  2  1  0        0
  2  3  1  0        0
  2  4  2  0        0
  4  5  1  0        0
  5  6  4  0        0
  6  7  4  0        0
  7  8  4  0        0
  8  9  1  0        0
  8 10  4  0        0
 10 11  4  0        0
  5 11  4  0        0
  4 12  1  0        0
 12 13  4  0        0
 13 14  4  0        0
 14 15  4  0        0
 15 16  1  0        0
 15 17  4  0        0
 17 18  4  0        0
 12 18  4  0        0
M  END
>  <CAS RN>
3547044

>  <SMILES>
ClC(Cl)=C(c1ccc(Cl)cc1)c1ccc(Cl)cc1

>  <Measured or Estimated Log10(mmol/L)>
-3.958400045

$$$$

CDXL12

 17 16  0  0  0  0  0  0  0  0999 V2000
   -2.8579    0.2062    0.0000 C   0  0  0  0  0  0  0  2  0  0  0  0
   -2.1434    0.6187    0.0000 C   0  0  0  0  0  0  0  2  0  0  0  0
   -1.4289    0.2062    0.0000 O   0  0  0  0  0  0  0  2  0  0  0  0
   -0.7145    0.6187    0.0000 P   0  0  0  0  0  0  0  2  0  0  0  0
   -0.7145    1.4438    0.0000 S   0  0  0  0  0  0  0  2  0  0  0  0
   -0.7145   -0.2062    0.0000 O   0  0  0  0  0  0  0  2  0  0  0  0
   -1.4289   -0.6188    0.0000 C   0  0  0  0  0  0  0  2  0  0  0  0
   -1.4289   -1.4438    0.0000 C   0  0  0  0  0  0  0  2  0  0  0  0
    0.0000    0.2062    0.0000 O   0  0  0  0  0  0  0  2  0  0  0  0
    0.7145    0.6188    0.0000 P   0  0  0  0  0  0  0  2  0  0  0  0
    0.7145    1.4438    0.0000 S   0  0  0  0  0  0  0  2  0  0  0  0
    1.4289    0.2062    0.0000 O   0  0  0  0  0  0  0  2  0  0  0  0
    2.1434    0.6187    0.0000 C   0  0  0  0  0  0  0  2  0  0  0  0
    2.8579    0.2062    0.0000 C   0  0  0  0  0  0  0  2  0  0  0  0
    0.7145   -0.2062    0.0000 O   0  0  0  0  0  0  0  2  0  0  0  0
    1.4289   -0.6188    0.0000 C   0  0  0  0  0  0  0  2  0  0  0  0
    1.4289   -1.4438    0.0000 C   0  0  0  0  0  0  0  2  0  0  0  0
  1  2  1  0        0
  2  3  1  0        0
  3  4  1  0        0
  4  5  2  0        0
  4  6  1  0        0
  6  7  1  0        0
  7  8  1  0        0
  4  9  1  0        0
  9 10  1  0        0
 10 11  2  0        0
 10 12  1  0        0
 12 13  1  0        0
 13 14  1  0        0
 10 15  1  0        0
 15 16  1  0        0
 16 17  1  0        0
M  END
>  <CAS RN>
3689245

>  <SMILES>
CCOP(=S)(OCC)OP(=S)(OCC)OCC

>  <Measured or Estimated Log10(mmol/L)>
-6.146558071

$$$$

CDXL12

 15 15  0  0  0  0  0  0  0  0999 V2000
   -0.7145   -1.4438    0.0000 O   0  0  0  0  0  0  0  2  0  0  0  0
   -0.7145   -0.6188    0.0000 C   0  0  0  0  0  0  0  2  0  0  0  0
   -0.0000   -0.2062    0.0000 O   0  0  0  0  0  0  0  2  0  0  0  0
    0.7145   -0.6188    0.0000 C   0  0  0  0  0  0  0  2  0  0  0  0
    1.4289   -0.2062    0.0000 C   0  0  0  0  0  0  0  2  0  0  0  0
    2.1434   -0.6188    0.0000 C   0  0  0  0  0  0  0  2  0  0  0  0
    2.1434   -1.4438    0.0000 C   0  0  0  0  0  0  0  2  0  0  0  0
    1.4289   -1.8563    0.0000 C   0  0  0  0  0  0  0  2  0  0  0  0
    0.7145   -1.4438    0.0000 C   0  0  0  0  0  0  0  2  0  0  0  0
    1.4289    0.6187    0.0000 C   0  0  0  0  0  0  0  2  0  0  0  0
    2.1434    1.0313    0.0000 C   0  0  0  0  0  0  0  2  0  0  0  0
    2.1434    1.8563    0.0000 C   0  0  0  0  0  0  0  2  0  0  0  0
    0.7145    1.0312    0.0000 C   0  0  0  0  0  0  0  2  0  0  0  0
   -1.4289   -0.2062    0.0000 N   0  0  0  0  0  0  0  2  0  0  0  0
   -2.1434   -0.6188    0.0000 C   0  0  0  0  0  0  0  2  0  0  0  0
  1  2  2  0        0
  2  3  1  0        0
  3  4  1  0        0
  4  5  4  0        0
  5  6  4  0        0
  6  7  4  0        0
  7  8  4  0        0
  8  9  4  0        0
  4  9  4  0        0
  5 10  1  0        0
 10 11  1  0        0
 11 12  1  0        0
 10 13  1  0        0
  2 14  1  0        0
 14 15  1  0        0
M  END
>  <CAS RN>
3766812

>  <SMILES>
O=C(Oc1c(cccc1)C(CC)C)NC

>  <Measured or Estimated Log10(mmol/L)>
-3.316542733

$$$$

CDXL12

  8  8  0  0  0  0  0  0  0  0999 V2000
    0.7145   -0.4125    0.0000 N   0  0  0  0  0  0  0  2  0  0  0  0
    0.0000   -0.8250    0.0000 C   0  0  0  0  0  0  0  2  0  0  0  0
   -0.7145   -0.4125    0.0000 C   0  0  0  0  0  0  0  2  0  0  0  0
   -0.7145    0.4125    0.0000 C   0  0  0  0  0  0  0  2  0  0  0  0
    0.0000    0.8250    0.0000 N   0  0  0  0  0  0  0  2  0  0  0  0
    0.7145    0.4125    0.0000 C   0  0  0  0  0  0  0  2  0  0  0  0
    1.4289    0.8250    0.0000 Cl  0  0  0  0  0  0  0  2  0  0  0  0
   -1.4289    0.8250    0.0000 Cl  0  0  0  0  0  0  0  2  0  0  0  0
  1  2  4  0        0
  2  3  4  0        0
  3  4  4  0        0
  4  5  4  0        0
  5  6  4  0        0
  1  6  4  0        0
  6  7  1  0        0
  4  8  1  0        0
M  END
>  <CAS RN>
3934201

>  <SMILES>
n1ccc(nc1Cl)Cl

>  <Measured or Estimated Log10(mmol/L)>
-1.3002207

$$$$

CDXL12

 19 20  0  0  0  0  0  0  0  0999 V2000
    0.7145   -0.8250    0.0000 C   0  0  0  0  0  0  0  2  0  0  0  0
    0.0000   -1.2375    0.0000 C   0  0  0  0  0  0  0  2  0  0  0  0
    0.0000   -2.0625    0.0000 C   0  0  0  0  0  0  0  2  0  0  0  0
   -0.7145   -2.4750    0.0000 C   0  0  0  0  0  0  0  2  0  0  0  0
   -1.4289   -2.0625    0.0000 C   0  0  0  0  0  0  0  2  0  0  0  0
   -2.1434   -2.4750    0.0000 I   0  0  0  0  0  0  0  2  0  0  0  0
   -1.4289   -1.2375    0.0000 C   0  0  0  0  0  0  0  2  0  0  0  0
   -0.7145   -0.8250    0.0000 C   0  0  0  0  0  0  0  2  0  0  0  0
    0.7145   -0.0000    0.0000 C   0  0  0  0  0  0  0  2  0  0  0  0
    0.0000    0.4125    0.0000 C   0  0  0  0  0  0  0  2  0  0  0  0
    0.0000    1.2375    0.0000 C   0  0  0  0  0  0  0  2  0  0  0  0
    0.7145    1.6500    0.0000 C   0  0  0  0  0  0  0  2  0  0  0  0
    0.7145    2.4750    0.0000 I   0  0  0  0  0  0  0  2  0  0  0  0
    1.4289    1.2375    0.0000 C   0  0  0  0  0  0  0  2  0  0  0  0
    1.4289    0.4125    0.0000 C   0  0  0  0  0  0  0  2  0  0  0  0
    1.4289   -1.2375    0.0000 C   0  0  0  0  0  0  0  2  0  0  0  0
    2.1434   -0.8250    0.0000 Cl  0  0  0  0  0  0  0  2  0  0  0  0
    1.4289   -2.0625    0.0000 Cl  0  0  0  0  0  0  0  2  0  0  0  0
    2.1434   -1.6500    0.0000 Cl  0  0  0  0  0  0  0  2  0  0  0  0
  1  2  1  0        0
  2  3  4  0        0
  3  4  4  0        0
  4  5  4  0        0
  5  6  1  0        0
  5  7  4  0        0
  7  8  4  0        0
  2  8  4  0        0
  1  9  1  0        0
  9 10  4  0        0
 10 11  4  0        0
 11 12  4  0        0
 12 13  1  0        0
 12 14  4  0        0
 14 15  4  0        0
  9 15  4  0        0
  1 16  1  0        0
 16 17  1  0        0
 16 18  1  0        0
 16 19  1  0        0
M  END
>  <CAS RN>
3972132

>  <SMILES>
C(c1ccc(I)cc1)(c1ccc(I)cc1)C(Cl)(Cl)Cl

>  <Measured or Estimated Log10(mmol/L)>
-2.925443231

$$$$

CDXL12

 16 17  0  0  0  0  0  0  0  0999 V2000
    2.5006    0.8250    0.0000 Cl  0  0  0  0  0  0  0  2  0  0  0  0
    1.7862    0.4125    0.0000 C   0  0  0  0  0  0  0  2  0  0  0  0
    1.7862   -0.4125    0.0000 N   0  0  0  0  0  0  0  2  0  0  0  0
    1.0717   -0.8250    0.0000 C   0  0  0  0  0  0  0  2  0  0  0  0
    0.3572   -0.4125    0.0000 N   0  0  0  0  0  0  0  2  0  0  0  0
    0.3572    0.4125    0.0000 C   0  0  0  0  0  0  0  2  0  0  0  0
    1.0717    0.8250    0.0000 N   0  0  0  0  0  0  0  2  0  0  0  0
   -0.3572    0.8250    0.0000 N   0  0  0  0  0  0  0  2  0  0  0  0
   -1.0717    0.4125    0.0000 C   0  0  0  0  0  0  0  2  0  0  0  0
   -1.0717   -0.4125    0.0000 C   0  0  0  0  0  0  0  2  0  0  0  0
   -1.7862   -0.8250    0.0000 C   0  0  0  0  0  0  0  2  0  0  0  0
   -2.5006   -0.4125    0.0000 C   0  0  0  0  0  0  0  2  0  0  0  0
   -2.5006    0.4125    0.0000 C   0  0  0  0  0  0  0  2  0  0  0  0
   -1.7862    0.8250    0.0000 C   0  0  0  0  0  0  0  2  0  0  0  0
   -0.3572    1.6500    0.0000 C   0  0  0  0  0  0  0  2  0  0  0  0
    1.0717   -1.6500    0.0000 Cl  0  0  0  0  0  0  0  2  0  0  0  0
  1  2  1  0        0
  2  3  4  0        0
  3  4  4  0        0
  4  5  4  0        0
  5  6  4  0        0
  6  7  4  0        0
  2  7  4  0        0
  6  8  1  0        0
  8  9  1  0        0
  9 10  4  0        0
 10 11  4  0        0
 11 12  4  0        0
 12 13  4  0        0
 13 14  4  0        0
  9 14  4  0        0
  8 15  1  0        0
  4 16  1  0        0
M  END
>  <CAS RN>
3995424

>  <SMILES>
Clc1nc(nc(n1)N(c1ccccc1)C)Cl

>  <Measured or Estimated Log10(mmol/L)>
-2.577580641

$$$$

CDXL12

 12 12  0  0  0  0  0  0  0  0999 V2000
    1.4289   -0.8250    0.0000 N   0  0  0  0  0  0  0  2  0  0  0  0
    0.7145   -0.4125    0.0000 C   0  0  0  0  0  0  0  2  0  0  0  0
    0.0000   -0.8250    0.0000 C   0  0  0  0  0  0  0  2  0  0  0  0
   -0.7145   -0.4125    0.0000 C   0  0  0  0  0  0  0  2  0  0  0  0
   -0.7145    0.4125    0.0000 C   0  0  0  0  0  0  0  2  0  0  0  0
   -1.4289    0.8250    0.0000 N   0  0  0  0  0  0  0  2  0  0  0  0
   -2.1434    0.4125    0.0000 C   0  0  0  0  0  0  0  2  0  0  0  0
   -2.8579    0.0000    0.0000 S   0  0  0  0  0  0  0  2  0  0  0  0
    0.0000    0.8250    0.0000 C   0  0  0  0  0  0  0  2  0  0  0  0
    0.7145    0.4125    0.0000 C   0  0  0  0  0  0  0  2  0  0  0  0
    2.1434   -0.4125    0.0000 C   0  0  0  0  0  0  0  2  0  0  0  0
    2.8579    0.0000    0.0000 S   0  0  0  0  0  0  0  2  0  0  0  0
  1  2  1  0        0
  2  3  4  0        0
  3  4  4  0        0
  4  5  4  0        0
  5  6  1  0        0
  6  7  2  0        0
  7  8  2  0        0
  5  9  4  0        0
  9 10  4  0        0
  2 10  4  0        0
  1 11  2  0        0
 11 12  2  0        0
M  END
>  <CAS RN>
4044659

>  <SMILES>
N(c1ccc(N=C=S)cc1)=C=S

>  <Measured or Estimated Log10(mmol/L)>
-3.397402731

$$$$

CDXL12

 16 18  0  0  0  0  0  0  0  0999 V2000
    0.7145   -1.8562    0.0000 Cl  0  0  0  0  0  0  0  2  0  0  0  0
    0.7145   -1.0312    0.0000 C   0  0  0  0  0  0  0  2  0  0  0  0
    1.4289   -0.6187    0.0000 C   0  0  0  0  0  0  0  2  0  0  0  0
    1.4289    0.2063    0.0000 C   0  0  0  0  0  0  0  2  0  0  0  0
    0.7145    0.6188    0.0000 C   0  0  0  0  0  0  0  2  0  0  0  0
    0.7145    1.4437    0.0000 C   0  0  0  0  0  0  0  2  0  0  0  0
    1.4289    1.8562    0.0000 O   0  0  0  0  0  0  0  2  0  0  0  0
   -0.0000    1.8562    0.0000 O   0  0  0  0  0  0  0  2  0  0  0  0
   -0.7145    1.4437    0.0000 C   0  0  0  0  0  0  0  2  0  0  0  0
   -1.4289    1.8562    0.0000 O   0  0  0  0  0  0  0  2  0  0  0  0
   -0.7145    0.6188    0.0000 C   0  0  0  0  0  0  0  2  0  0  0  0
    0.0000    0.2063    0.0000 C   0  0  0  0  0  0  0  2  0  0  0  0
    0.0000   -0.6187    0.0000 C   0  0  0  0  0  0  0  2  0  0  0  0
   -0.7145   -1.0312    0.0000 C   0  0  0  0  0  0  0  2  0  0  0  0
   -1.4289   -0.6187    0.0000 C   0  0  0  0  0  0  0  2  0  0  0  0
   -1.4289    0.2063    0.0000 C   0  0  0  0  0  0  0  2  0  0  0  0
  1  2  1  0        0
  2  3  4  0        0
  3  4  4  0        0
  4  5  4  0        0
  5  6  1  0        0
  6  7  2  0        0
  6  8  1  0        0
  8  9  1  0        0
  9 10  2  0        0
  9 11  1  0        0
 11 12  4  0        0
  5 12  4  0        0
 12 13  4  0        0
  2 13  4  0        0
 13 14  4  0        0
 14 15  4  0        0
 15 16  4  0        0
 11 16  4  0        0
M  END
>  <CAS RN>
4053081

>  <SMILES>
Clc1ccc2C(=O)OC(=O)c3c2c1ccc3

>  <Measured or Estimated Log10(mmol/L)>
-1.366650774

$$$$

CDXL12

 11 11  0  0  0  0  0  0  0  0999 V2000
    0.3572   -1.2375    0.0000 C   0  0  0  0  0  0  0  2  0  0  0  0
    0.3572   -0.4125    0.0000 N   0  0  0  0  0  0  0  2  0  0  0  0
   -0.3572   -0.0000    0.0000 C   0  0  0  0  0  0  0  2  0  0  0  0
   -1.0717   -0.4125    0.0000 C   0  0  0  0  0  0  0  2  0  0  0  0
   -1.7862    0.0000    0.0000 C   0  0  0  0  0  0  0  2  0  0  0  0
   -1.7862    0.8250    0.0000 C   0  0  0  0  0  0  0  2  0  0  0  0
   -1.0717    1.2375    0.0000 C   0  0  0  0  0  0  0  2  0  0  0  0
   -0.3572    0.8250    0.0000 C   0  0  0  0  0  0  0  2  0  0  0  0
    1.0717    0.0000    0.0000 C   0  0  0  0  0  0  0  2  0  0  0  0
    1.0717    0.8250    0.0000 S   0  0  0  0  0  0  0  2  0  0  0  0
    1.7862   -0.4125    0.0000 N   0  0  0  0  0  0  0  2  0  0  0  0
  1  2  1  0        0
  2  3  1  0        0
  3  4  4  0        0
  4  5  4  0        0
  5  6  4  0        0
  6  7  4  0        0
  7  8  4  0        0
  3  8  4  0        0
  2  9  1  0        0
  9 10  2  0        0
  9 11  1  0        0
M  END
>  <CAS RN>
4104750

>  <SMILES>
CN(c1ccccc1)C(=S)N

>  <Measured or Estimated Log10(mmol/L)>
-0.236674171

$$$$

CDXL12

 20 19  0  0  0  0  0  0  0  0999 V2000
    1.7862   -0.2062    0.0000 N   0  0  0  0  0  0  0  2  0  0  0  0
    2.5006    0.2063    0.0000 C   0  0  0  0  0  0  0  2  0  0  0  0
    2.5006    1.0313    0.0000 C   0  0  0  0  0  0  0  2  0  0  0  0
    3.2151   -0.2062    0.0000 C   0  0  0  0  0  0  0  2  0  0  0  0
    1.7862   -1.0312    0.0000 C   0  0  0  0  0  0  0  2  0  0  0  0
    2.5006   -1.4437    0.0000 C   0  0  0  0  0  0  0  2  0  0  0  0
    1.0717   -1.4437    0.0000 C   0  0  0  0  0  0  0  2  0  0  0  0
    1.0717    0.2062    0.0000 C   0  0  0  0  0  0  0  2  0  0  0  0
    1.0717    1.0313    0.0000 S   0  0  0  0  0  0  0  2  0  0  0  0
    0.3572   -0.2062    0.0000 S   0  0  0  0  0  0  0  2  0  0  0  0
   -0.3572    0.2062    0.0000 S   0  0  0  0  0  0  0  2  0  0  0  0
   -1.0717   -0.2062    0.0000 C   0  0  0  0  0  0  0  2  0  0  0  0
   -1.0717   -1.0312    0.0000 S   0  0  0  0  0  0  0  2  0  0  0  0
   -1.7862    0.2062    0.0000 N   0  0  0  0  0  0  0  2  0  0  0  0
   -2.5006   -0.2062    0.0000 C   0  0  0  0  0  0  0  2  0  0  0  0
   -2.5006   -1.0312    0.0000 C   0  0  0  0  0  0  0  2  0  0  0  0
   -3.2151    0.2062    0.0000 C   0  0  0  0  0  0  0  2  0  0  0  0
   -1.7862    1.0312    0.0000 C   0  0  0  0  0  0  0  2  0  0  0  0
   -2.5006    1.4437    0.0000 C   0  0  0  0  0  0  0  2  0  0  0  0
   -1.0717    1.4437    0.0000 C   0  0  0  0  0  0  0  2  0  0  0  0
  1  2  1  0        0
  2  3  1  0        0
  2  4  1  0        0
  1  5  1  0        0
  5  6  1  0        0
  5  7  1  0        0
  1  8  1  0        0
  8  9  2  0        0
  8 10  1  0        0
 10 11  1  0        0
 11 12  1  0        0
 12 13  2  0        0
 12 14  1  0        0
 14 15  1  0        0
 15 16  1  0        0
 15 17  1  0        0
 14 18  1  0        0
 18 19  1  0        0
 18 20  1  0        0
M  END
>  <CAS RN>
4136918

>  <SMILES>
N(C(C)C)(C(C)C)C(=S)SSC(=S)N(C(C)C)C(C)C

>  <Measured or Estimated Log10(mmol/L)>
-3.510943449

$$$$

CDXL12

 12 13  0  0  0  0  0  0  0  0999 V2000
    2.0818    0.1350    0.0000 N   0  0  0  0  0  0  0  2  0  0  0  0
    1.6693   -0.5795    0.0000 C   0  0  0  0  0  0  0  2  0  0  0  0
    0.8623   -0.4080    0.0000 C   0  0  0  0  0  0  0  2  0  0  0  0
    0.7761    0.4125    0.0000 N   0  0  0  0  0  0  0  2  0  0  0  0
    1.5298    0.7481    0.0000 C   0  0  0  0  0  0  0  2  0  0  0  0
    0.0616    0.8250    0.0000 C   0  0  0  0  0  0  0  2  0  0  0  0
   -0.6529    0.4125    0.0000 C   0  0  0  0  0  0  0  2  0  0  0  0
   -0.6529   -0.4125    0.0000 C   0  0  0  0  0  0  0  2  0  0  0  0
   -1.3673   -0.8250    0.0000 C   0  0  0  0  0  0  0  2  0  0  0  0
   -2.0818   -0.4125    0.0000 C   0  0  0  0  0  0  0  2  0  0  0  0
   -2.0818    0.4125    0.0000 C   0  0  0  0  0  0  0  2  0  0  0  0
   -1.3673    0.8250    0.0000 C   0  0  0  0  0  0  0  2  0  0  0  0
  1  2  4  0        0
  2  3  4  0        0
  3  4  4  0        0
  4  5  4  0        0
  1  5  4  0        0
  4  6  1  0        0
  6  7  1  0        0
  7  8  4  0        0
  8  9  4  0        0
  9 10  4  0        0
 10 11  4  0        0
 11 12  4  0        0
  7 12  4  0        0
M  END
>  <CAS RN>
4238715

>  <SMILES>
n1ccn(c1)Cc1ccccc1

>  <Measured or Estimated Log10(mmol/L)>
-0.236848116

$$$$

CDXL12

  9  9  0  0  0  0  0  0  0  0999 V2000
    2.0818   -0.2898    0.0000 C   0  0  0  0  0  0  0  2  0  0  0  0
    1.3673   -0.7023    0.0000 C   0  0  0  0  0  0  0  2  0  0  0  0
    0.6529   -0.2898    0.0000 C   0  0  0  0  0  0  0  2  0  0  0  0
   -0.0616   -0.7023    0.0000 C   0  0  0  0  0  0  0  2  0  0  0  0
   -0.7761   -0.2898    0.0000 N   0  0  0  0  0  0  0  2  0  0  0  0
   -1.5298   -0.6253    0.0000 C   0  0  0  0  0  0  0  2  0  0  0  0
   -2.0818   -0.0122    0.0000 C   0  0  0  0  0  0  0  2  0  0  0  0
   -1.6693    0.7023    0.0000 N   0  0  0  0  0  0  0  2  0  0  0  0
   -0.8623    0.5307    0.0000 C   0  0  0  0  0  0  0  2  0  0  0  0
  1  2  1  0        0
  2  3  1  0        0
  3  4  1  0        0
  4  5  1  0        0
  5  6  4  0        0
  6  7  4  0        0
  7  8  4  0        0
  8  9  4  0        0
  5  9  4  0        0
M  END
>  <CAS RN>
4316421

>  <SMILES>
CCCCn1ccnc1

>  <Measured or Estimated Log10(mmol/L)>
-1.281162772

$$$$

CDXL12

 22 22  0  0  0  0  0  0  0  0999 V2000
    0.0148    0.1914    0.0000 Sn  0  0  0  0  0  0  0  2  0  0  0  0
    0.7293   -0.2211    0.0000 C   0  0  0  0  0  0  0  2  0  0  0  0
    1.4437    0.1914    0.0000 C   0  0  0  0  0  0  0  2  0  0  0  0
    2.1582   -0.2211    0.0000 C   0  0  0  0  0  0  0  2  0  0  0  0
    2.8727    0.1914    0.0000 C   0  0  0  0  0  0  0  2  0  0  0  0
   -0.6997    0.6039    0.0000 C   0  0  0  0  0  0  0  2  0  0  0  0
   -0.6997    1.4289    0.0000 C   0  0  0  0  0  0  0  2  0  0  0  0
   -1.4141    1.8414    0.0000 C   0  0  0  0  0  0  0  2  0  0  0  0
   -1.4141    2.6664    0.0000 C   0  0  0  0  0  0  0  2  0  0  0  0
    0.4273    0.9059    0.0000 C   0  0  0  0  0  0  0  2  0  0  0  0
    1.2523    0.9059    0.0000 C   0  0  0  0  0  0  0  2  0  0  0  0
    1.6648    1.6204    0.0000 C   0  0  0  0  0  0  0  2  0  0  0  0
    2.4898    1.6204    0.0000 C   0  0  0  0  0  0  0  2  0  0  0  0
   -0.3977   -0.5230    0.0000 O   0  0  0  0  0  0  0  2  0  0  0  0
   -1.2227   -0.5230    0.0000 C   0  0  0  0  0  0  0  2  0  0  0  0
   -1.6352    0.1914    0.0000 O   0  0  0  0  0  0  0  2  0  0  0  0
   -1.6352   -1.2375    0.0000 C   0  0  0  0  0  0  0  2  0  0  0  0
   -2.4602   -1.2375    0.0000 C   0  0  0  0  0  0  0  2  0  0  0  0
   -2.8727   -1.9520    0.0000 C   0  0  0  0  0  0  0  2  0  0  0  0
   -2.4602   -2.6664    0.0000 C   0  0  0  0  0  0  0  2  0  0  0  0
   -1.6352   -2.6664    0.0000 C   0  0  0  0  0  0  0  2  0  0  0  0
   -1.2227   -1.9520    0.0000 C   0  0  0  0  0  0  0  2  0  0  0  0
  1  2  1  0        0
  2  3  1  0        0
  3  4  1  0        0
  4  5  1  0        0
  1  6  1  0        0
  6  7  1  0        0
  7  8  1  0        0
  8  9  1  0        0
  1 10  1  0        0
 10 11  1  0        0
 11 12  1  0        0
 12 13  1  0        0
  1 14  1  0        0
 14 15  1  0        0
 15 16  2  0        0
 15 17  1  0        0
 17 18  4  0        0
 18 19  4  0        0
 19 20  4  0        0
 20 21  4  0        0
 21 22  4  0        0
 17 22  4  0        0
M  END
>  <CAS RN>
4342363

>  <SMILES>
[Sn](CCCC)(CCCC)(CCCC)OC(=O)c1ccccc1

>  <Measured or Estimated Log10(mmol/L)>
-4.970550787

$$$$

CDXL12

 16 17  0  0  0  0  0  0  0  0999 V2000
    2.6112    1.0313    0.0000 C   0  0  0  0  0  0  0  2  0  0  0  0
    1.7862    1.0313    0.0000 N   0  0  0  0  0  0  0  2  0  0  0  0
    2.1987    1.7457    0.0000 Cl  0  0  0  0  0  0  0  2  0  0  0  0
    1.7862    0.2062    0.0000 C   0  0  0  0  0  0  0  2  0  0  0  0
    1.0717   -0.2062    0.0000 C   0  0  0  0  0  0  0  2  0  0  0  0
    0.3572    0.2062    0.0000 C   0  0  0  0  0  0  0  2  0  0  0  0
    0.3572    1.0313    0.0000 C   0  0  0  0  0  0  0  2  0  0  0  0
    1.0717    1.4438    0.0000 C   0  0  0  0  0  0  0  2  0  0  0  0
   -0.3572   -0.2062    0.0000 C   0  0  0  0  0  0  0  2  0  0  0  0
   -0.3572   -1.0312    0.0000 C   0  0  0  0  0  0  0  2  0  0  0  0
   -1.0717   -1.4437    0.0000 C   0  0  0  0  0  0  0  2  0  0  0  0
   -1.7862   -1.0312    0.0000 N   0  0  0  0  0  0  0  2  0  0  0  0
   -2.6112   -1.0312    0.0000 Cl  0  0  0  0  0  0  0  2  0  0  0  0
   -2.1987   -1.7457    0.0000 C   0  0  0  0  0  0  0  2  0  0  0  0
   -1.7862   -0.2062    0.0000 C   0  0  0  0  0  0  0  2  0  0  0  0
   -1.0717    0.2062    0.0000 C   0  0  0  0  0  0  0  2  0  0  0  0
  1  2  1  0        0
  2  3  1  0        0
  2  4  1  0        0
  4  5  1  0        0
  5  6  1  0        0
  6  7  1  0        0
  7  8  1  0        0
  2  8  1  0        0
  6  9  1  0        0
  9 10  1  0        0
 10 11  1  0        0
 11 12  1  0        0
 12 13  1  0        0
 12 14  1  0        0
 12 15  1  0        0
 15 16  1  0        0
  9 16  1  0        0
M  END
>  <CAS RN>
4685147

>  <SMILES>
CN1(Cl)CCC(CC1)C1CCN(Cl)(C)CC1

>  <Measured or Estimated Log10(mmol/L)>
-1.979749932

$$$$

CDXL12

 10 11  0  0  0  0  0  0  0  0999 V2000
    0.6592    0.2615    0.0000 C   0  0  0  0  0  0  0  2  0  0  0  0
    1.0717    0.9760    0.0000 C   0  0  0  0  0  0  0  2  0  0  0  0
    1.4842    0.2615    0.0000 C   0  0  0  0  0  0  0  2  0  0  0  0
    0.6592   -0.5635    0.0000 C   0  0  0  0  0  0  0  2  0  0  0  0
   -0.0553   -0.9760    0.0000 C   0  0  0  0  0  0  0  2  0  0  0  0
   -0.7697   -0.5635    0.0000 C   0  0  0  0  0  0  0  2  0  0  0  0
   -0.7697    0.2615    0.0000 C   0  0  0  0  0  0  0  2  0  0  0  0
   -0.0553    0.6740    0.0000 C   0  0  0  0  0  0  0  2  0  0  0  0
    0.1270   -0.0458    0.0000 C   0  0  0  0  0  0  0  2  0  0  0  0
   -1.4842    0.6740    0.0000 C   0  0  0  0  0  0  0  2  0  0  0  0
  1  2  1  0        0
  1  3  1  0        0
  1  4  1  0        0
  4  5  1  0        0
  5  6  1  0        0
  6  7  1  0        0
  7  8  1  0        0
  1  8  1  0        0
  8  9  1  0        0
  4  9  1  0        0
  7 10  1  0        0
M  END
>  <CAS RN>
4795862

>  <SMILES>
C1(C)(C)C2CCC(C1C2)C

>  <Measured or Estimated Log10(mmol/L)>
-1.622163756

$$$$

CDXL12

 11 11  0  0  0  0  0  0  0  0999 V2000
    1.4289   -1.2375    0.0000 O   0  0  0  0  0  0  0  2  0  0  0  0
    0.7145   -0.8250    0.0000 C   0  0  0  0  0  0  0  2  0  0  0  0
    0.0000   -1.2375    0.0000 C   0  0  0  0  0  0  0  2  0  0  0  0
   -0.7145   -0.8250    0.0000 C   0  0  0  0  0  0  0  2  0  0  0  0
   -1.4289   -1.2375    0.0000 Cl  0  0  0  0  0  0  0  2  0  0  0  0
   -0.7145    0.0000    0.0000 C   0  0  0  0  0  0  0  2  0  0  0  0
   -1.4289    0.4125    0.0000 Cl  0  0  0  0  0  0  0  2  0  0  0  0
    0.0000    0.4125    0.0000 C   0  0  0  0  0  0  0  2  0  0  0  0
    0.0000    1.2375    0.0000 Cl  0  0  0  0  0  0  0  2  0  0  0  0
    0.7145    0.0000    0.0000 C   0  0  0  0  0  0  0  2  0  0  0  0
    1.4289    0.4125    0.0000 Cl  0  0  0  0  0  0  0  2  0  0  0  0
  1  2  1  0        0
  2  3  4  0        0
  3  4  4  0        0
  4  5  1  0        0
  4  6  4  0        0
  6  7  1  0        0
  6  8  4  0        0
  8  9  1  0        0
  8 10  4  0        0
  2 10  4  0        0
 10 11  1  0        0
M  END
>  <CAS RN>
4901513

>  <SMILES>
Oc1cc(Cl)c(Cl)c(Cl)c1Cl

>  <Measured or Estimated Log10(mmol/L)>
-2.12

$$$$

CDXL12

 11 11  0  0  0  0  0  0  0  0999 V2000
    0.7145   -1.2375    0.0000 C   0  0  0  0  0  0  0  2  0  0  0  0
    0.0000   -0.8250    0.0000 C   0  0  0  0  0  0  0  2  0  0  0  0
   -0.7145   -1.2375    0.0000 C   0  0  0  0  0  0  0  2  0  0  0  0
    0.0000    0.0000    0.0000 C   0  0  0  0  0  0  0  2  0  0  0  0
   -0.7145    0.4125    0.0000 N   0  0  0  0  0  0  0  2  0  0  0  0
   -0.7145    1.2375    0.0000 O   0  0  0  0  0  0  0  2  0  0  0  0
   -1.4289    0.0000    0.0000 O   0  0  0  0  0  0  0  2  0  0  0  0
    0.7145    0.4125    0.0000 C   0  0  0  0  0  0  0  2  0  0  0  0
    0.7145    1.2375    0.0000 O   0  0  0  0  0  0  0  2  0  0  0  0
    1.4289   -0.0000    0.0000 C   0  0  0  0  0  0  0  2  0  0  0  0
    1.4289   -0.8250    0.0000 C   0  0  0  0  0  0  0  2  0  0  0  0
  1  2  4  0        0
  2  3  1  0        0
  2  4  4  0        0
  4  5  1  0        0
  5  6  2  0        0
  5  7  2  0        0
  4  8  4  0        0
  8  9  1  0        0
  8 10  4  0        0
 10 11  4  0        0
  1 11  4  0        0
M  END
>  <CAS RN>
4920778

>  <SMILES>
c1c(C)c(N(=O)=O)c(O)cc1

>  <Measured or Estimated Log10(mmol/L)>
-0.8649705

$$$$

CDXL12

 11 11  0  0  0  0  0  0  0  0999 V2000
    1.0717    0.4678    0.0000 S   0  0  0  0  0  0  0  2  0  0  0  0
    1.4842   -0.2467    0.0000 O   0  0  0  0  0  0  0  2  0  0  0  0
    0.6592    1.1822    0.0000 O   0  0  0  0  0  0  0  2  0  0  0  0
    1.7862    0.8803    0.0000 O   0  0  0  0  0  0  0  2  0  0  0  0
    0.3572    0.0553    0.0000 C   0  0  0  0  0  0  0  2  0  0  0  0
    0.3572   -0.7697    0.0000 C   0  0  0  0  0  0  0  2  0  0  0  0
   -0.3572   -1.1822    0.0000 C   0  0  0  0  0  0  0  2  0  0  0  0
   -1.0717   -0.7697    0.0000 C   0  0  0  0  0  0  0  2  0  0  0  0
   -1.7862   -1.1822    0.0000 Br  0  0  0  0  0  0  0  2  0  0  0  0
   -1.0717    0.0553    0.0000 C   0  0  0  0  0  0  0  2  0  0  0  0
   -0.3572    0.4678    0.0000 C   0  0  0  0  0  0  0  2  0  0  0  0
  1  2  2  0        0
  1  3  2  0        0
  1  4  1  0        0
  1  5  1  0        0
  5  6  4  0        0
  6  7  4  0        0
  7  8  4  0        0
  8  9  1  0        0
  8 10  4  0        0
 10 11  4  0        0
  5 11  4  0        0
M  END
>  <CAS RN>
5015758

>  <SMILES>
S(=O)(=O)(O)c1ccc(Br)cc1

>  <Measured or Estimated Log10(mmol/L)>
0.913585209

$$$$

CDXL12

 16 15  0  0  0  0  0  0  0  0999 V2000
    2.1434   -0.0000    0.0000 Na  0  0  0  0  0  0  0  2  0  0  0  0
    1.4289   -0.4125    0.0000 O   0  0  0  0  0  0  0  2  0  0  0  0
    0.7145   -0.0000    0.0000 C   0  0  0  0  0  0  0  2  0  0  0  0
    0.7145    0.8250    0.0000 O   0  0  0  0  0  0  0  2  0  0  0  0
    0.0000   -0.4125    0.0000 C   0  0  0  0  0  0  0  2  0  0  0  0
   -0.7145   -0.0000    0.0000 N   0  0  0  0  0  0  0  2  0  0  0  0
   -1.4289   -0.4125    0.0000 C   0  0  0  0  0  0  0  2  0  0  0  0
   -1.4289   -1.2375    0.0000 C   0  0  0  0  0  0  0  2  0  0  0  0
   -2.1434   -1.6500    0.0000 O   0  0  0  0  0  0  0  2  0  0  0  0
   -2.1434   -2.4750    0.0000 Na  0  0  0  0  0  0  0  2  0  0  0  0
   -0.7145   -1.6500    0.0000 O   0  0  0  0  0  0  0  2  0  0  0  0
   -0.7145    0.8250    0.0000 C   0  0  0  0  0  0  0  2  0  0  0  0
   -1.4289    1.2375    0.0000 C   0  0  0  0  0  0  0  2  0  0  0  0
   -1.4289    2.0625    0.0000 O   0  0  0  0  0  0  0  2  0  0  0  0
   -2.1434    2.4750    0.0000 Na  0  0  0  0  0  0  0  2  0  0  0  0
   -2.1434    0.8250    0.0000 O   0  0  0  0  0  0  0  2  0  0  0  0
  1  2  1  0        0
  2  3  1  0        0
  3  4  2  0        0
  3  5  1  0        0
  5  6  1  0        0
  6  7  1  0        0
  7  8  1  0        0
  8  9  1  0        0
  9 10  1  0        0
  8 11  2  0        0
  6 12  1  0        0
 12 13  1  0        0
 13 14  1  0        0
 14 15  1  0        0
 13 16  2  0        0
M  END
>  <CAS RN>
5064313

>  <SMILES>
[Na]OC(=O)CN(CC(O[Na])=O)CC(O[Na])=O

>  <Measured or Estimated Log10(mmol/L)>
0.351762033

$$$$

CDXL12

 27 26  0  0  0  0  0  0  0  0999 V2000
    0.4186   -3.1215    0.0000 Cl  0  0  0  0  0  0  0  2  0  0  0  0
    0.2471   -2.3145    0.0000 N   0  0  0  0  0  0  0  2  0  0  0  0
    0.5826   -1.5608    0.0000 C   0  0  0  0  0  0  0  2  0  0  0  0
   -0.4674   -2.7270    0.0000 C   0  0  0  0  0  0  0  2  0  0  0  0
   -1.1819   -2.3145    0.0000 C   0  0  0  0  0  0  0  2  0  0  0  0
   -1.8963   -2.7270    0.0000 C   0  0  0  0  0  0  0  2  0  0  0  0
   -2.6108   -2.3145    0.0000 C   0  0  0  0  0  0  0  2  0  0  0  0
   -3.3253   -2.7270    0.0000 C   0  0  0  0  0  0  0  2  0  0  0  0
   -4.0397   -2.3145    0.0000 C   0  0  0  0  0  0  0  2  0  0  0  0
   -4.7542   -2.7270    0.0000 C   0  0  0  0  0  0  0  2  0  0  0  0
   -5.4687   -2.3145    0.0000 C   0  0  0  0  0  0  0  2  0  0  0  0
   -0.3660   -1.7625    0.0000 C   0  0  0  0  0  0  0  2  0  0  0  0
   -0.1945   -0.9555    0.0000 C   0  0  0  0  0  0  0  2  0  0  0  0
   -0.8076   -0.4035    0.0000 C   0  0  0  0  0  0  0  2  0  0  0  0
   -0.6361    0.4035    0.0000 C   0  0  0  0  0  0  0  2  0  0  0  0
   -1.2492    0.9555    0.0000 C   0  0  0  0  0  0  0  2  0  0  0  0
   -1.0776    1.7625    0.0000 C   0  0  0  0  0  0  0  2  0  0  0  0
   -1.6907    2.3145    0.0000 C   0  0  0  0  0  0  0  2  0  0  0  0
   -1.5192    3.1215    0.0000 C   0  0  0  0  0  0  0  2  0  0  0  0
    1.0676   -2.4008    0.0000 C   0  0  0  0  0  0  0  2  0  0  0  0
    1.5525   -1.7333    0.0000 C   0  0  0  0  0  0  0  2  0  0  0  0
    2.3730   -1.8196    0.0000 C   0  0  0  0  0  0  0  2  0  0  0  0
    2.8579   -1.1521    0.0000 C   0  0  0  0  0  0  0  2  0  0  0  0
    3.6784   -1.2384    0.0000 C   0  0  0  0  0  0  0  2  0  0  0  0
    4.1633   -0.5709    0.0000 C   0  0  0  0  0  0  0  2  0  0  0  0
    4.9838   -0.6571    0.0000 C   0  0  0  0  0  0  0  2  0  0  0  0
    5.4687    0.0103    0.0000 C   0  0  0  0  0  0  0  2  0  0  0  0
  1  2  1  0        0
  2  3  1  0        0
  2  4  1  0        0
  4  5  1  0        0
  5  6  1  0        0
  6  7  1  0        0
  7  8  1  0        0
  8  9  1  0        0
  9 10  1  0        0
 10 11  1  0        0
  2 12  1  0        0
 12 13  1  0        0
 13 14  1  0        0
 14 15  1  0        0
 15 16  1  0        0
 16 17  1  0        0
 17 18  1  0        0
 18 19  1  0        0
  2 20  1  0        0
 20 21  1  0        0
 21 22  1  0        0
 22 23  1  0        0
 23 24  1  0        0
 24 25  1  0        0
 25 26  1  0        0
 26 27  1  0        0
M  END
>  <CAS RN>
5137553

>  <SMILES>
ClN(C)(CCCCCCCC)(CCCCCCCC)CCCCCCCC

>  <Measured or Estimated Log10(mmol/L)>
-3.705832014

$$$$

CDXL12

 11 11  0  0  0  0  0  0  0  0999 V2000
    1.0717    0.4678    0.0000 S   0  0  0  0  0  0  0  2  0  0  0  0
    1.4842   -0.2467    0.0000 O   0  0  0  0  0  0  0  2  0  0  0  0
    0.6592    1.1822    0.0000 O   0  0  0  0  0  0  0  2  0  0  0  0
    1.7862    0.8803    0.0000 O   0  0  0  0  0  0  0  2  0  0  0  0
    0.3572    0.0553    0.0000 C   0  0  0  0  0  0  0  2  0  0  0  0
    0.3572   -0.7697    0.0000 C   0  0  0  0  0  0  0  2  0  0  0  0
   -0.3572   -1.1822    0.0000 C   0  0  0  0  0  0  0  2  0  0  0  0
   -1.0717   -0.7697    0.0000 C   0  0  0  0  0  0  0  2  0  0  0  0
   -1.7862   -1.1822    0.0000 Cl  0  0  0  0  0  0  0  2  0  0  0  0
   -1.0717    0.0553    0.0000 C   0  0  0  0  0  0  0  2  0  0  0  0
   -0.3572    0.4678    0.0000 C   0  0  0  0  0  0  0  2  0  0  0  0
  1  2  2  0        0
  1  3  2  0        0
  1  4  1  0        0
  1  5  1  0        0
  5  6  4  0        0
  6  7  4  0        0
  7  8  4  0        0
  8  9  1  0        0
  8 10  4  0        0
 10 11  4  0        0
  5 11  4  0        0
M  END
>  <CAS RN>
5138909

>  <SMILES>
S(=O)(=O)(O)c1ccc(Cl)cc1

>  <Measured or Estimated Log10(mmol/L)>
1.599470691

$$$$

CDXL12

 11 11  0  0  0  0  0  0  0  0999 V2000
   -1.0717    0.4125    0.0000 N   0  0  0  0  0  0  0  2  0  0  0  0
   -1.0717    1.2375    0.0000 O   0  0  0  0  0  0  0  2  0  0  0  0
   -1.7862   -0.0000    0.0000 O   0  0  0  0  0  0  0  2  0  0  0  0
   -0.3572   -0.0000    0.0000 C   0  0  0  0  0  0  0  2  0  0  0  0
   -0.3572   -0.8250    0.0000 C   0  0  0  0  0  0  0  2  0  0  0  0
   -1.0717   -1.2375    0.0000 C   0  0  0  0  0  0  0  2  0  0  0  0
    0.3572   -1.2375    0.0000 C   0  0  0  0  0  0  0  2  0  0  0  0
    1.0717   -0.8250    0.0000 C   0  0  0  0  0  0  0  2  0  0  0  0
    1.7862   -1.2375    0.0000 Cl  0  0  0  0  0  0  0  2  0  0  0  0
    1.0717    0.0000    0.0000 C   0  0  0  0  0  0  0  2  0  0  0  0
    0.3572    0.4125    0.0000 C   0  0  0  0  0  0  0  2  0  0  0  0
  1  2  2  0        0
  1  3  2  0        0
  1  4  1  0        0
  4  5  4  0        0
  5  6  1  0        0
  5  7  4  0        0
  7  8  4  0        0
  8  9  1  0        0
  8 10  4  0        0
 10 11  4  0        0
  4 11  4  0        0
M  END
>  <CAS RN>
5367282

>  <SMILES>
N(=O)(=O)c1c(C)cc(Cl)cc1

>  <Measured or Estimated Log10(mmol/L)>
-0.690406202

$$$$

CDXL12

  8  7  0  0  0  0  0  0  0  0999 V2000
    1.0717    0.2062    0.0000 S   0  0  0  0  0  0  0  2  0  0  0  0
    1.7862   -0.2062    0.0000 C   0  0  0  0  0  0  0  2  0  0  0  0
    2.5006    0.2062    0.0000 C   0  0  0  0  0  0  0  2  0  0  0  0
    0.3572   -0.2062    0.0000 C   0  0  0  0  0  0  0  2  0  0  0  0
   -0.3572    0.2062    0.0000 C   0  0  0  0  0  0  0  2  0  0  0  0
   -1.0717   -0.2062    0.0000 S   0  0  0  0  0  0  0  2  0  0  0  0
   -1.7862    0.2062    0.0000 C   0  0  0  0  0  0  0  2  0  0  0  0
   -2.5006   -0.2062    0.0000 C   0  0  0  0  0  0  0  2  0  0  0  0
  1  2  1  0        0
  2  3  1  0        0
  1  4  1  0        0
  4  5  1  0        0
  5  6  1  0        0
  6  7  1  0        0
  7  8  1  0        0
M  END
>  <CAS RN>
5395755

>  <SMILES>
S(CC)CCSCC

>  <Measured or Estimated Log10(mmol/L)>
-1.0307801

$$$$

CDXL12

 16 16  0  0  0  0  0  0  0  0999 V2000
    2.5006   -0.0000    0.0000 C   0  0  0  0  0  0  0  2  0  0  0  0
    1.7862   -0.4125    0.0000 O   0  0  0  0  0  0  0  2  0  0  0  0
    1.0717    0.0000    0.0000 P   0  0  0  0  0  0  0  2  0  0  0  0
    1.0717    0.8250    0.0000 S   0  0  0  0  0  0  0  2  0  0  0  0
    1.0717   -0.8250    0.0000 O   0  0  0  0  0  0  0  2  0  0  0  0
    1.7862   -1.2375    0.0000 C   0  0  0  0  0  0  0  2  0  0  0  0
    0.3572   -0.4125    0.0000 O   0  0  0  0  0  0  0  2  0  0  0  0
   -0.3572   -0.0000    0.0000 C   0  0  0  0  0  0  0  2  0  0  0  0
   -1.0717   -0.4125    0.0000 N   0  0  0  0  0  0  0  2  0  0  0  0
   -1.7862    0.0000    0.0000 C   0  0  0  0  0  0  0  2  0  0  0  0
   -2.5006   -0.4125    0.0000 Cl  0  0  0  0  0  0  0  2  0  0  0  0
   -1.7862    0.8250    0.0000 C   0  0  0  0  0  0  0  2  0  0  0  0
   -2.5006    1.2375    0.0000 Cl  0  0  0  0  0  0  0  2  0  0  0  0
   -1.0717    1.2375    0.0000 C   0  0  0  0  0  0  0  2  0  0  0  0
   -0.3572    0.8250    0.0000 C   0  0  0  0  0  0  0  2  0  0  0  0
    0.3572    1.2375    0.0000 Cl  0  0  0  0  0  0  0  2  0  0  0  0
  1  2  1  0        0
  2  3  1  0        0
  3  4  2  0        0
  3  5  1  0        0
  5  6  1  0        0
  3  7  1  0        0
  7  8  1  0        0
  8  9  4  0        0
  9 10  4  0        0
 10 11  1  0        0
 10 12  4  0        0
 12 13  1  0        0
 12 14  4  0        0
 14 15  4  0        0
  8 15  4  0        0
 15 16  1  0        0
M  END
>  <CAS RN>
5598130

>  <SMILES>
COP(=S)(OC)Oc1nc(Cl)c(Cl)cc1Cl

>  <Measured or Estimated Log10(mmol/L)>
-4.242932266

$$$$

CDXL12

  9  8  0  0  0  0  0  0  0  0999 V2000
    0.0000    0.0000    0.0000 P   0  0  0  0  0  0  0  2  0  0  0  0
    0.0000    0.8250    0.0000 S   0  0  0  0  0  0  0  2  0  0  0  0
   -0.7145   -0.4125    0.0000 O   0  0  0  0  0  0  0  2  0  0  0  0
   -1.4289   -0.0000    0.0000 C   0  0  0  0  0  0  0  2  0  0  0  0
   -2.1434   -0.4125    0.0000 C   0  0  0  0  0  0  0  2  0  0  0  0
    0.7145   -0.4125    0.0000 O   0  0  0  0  0  0  0  2  0  0  0  0
    1.4289   -0.0000    0.0000 C   0  0  0  0  0  0  0  2  0  0  0  0
    2.1434   -0.4125    0.0000 C   0  0  0  0  0  0  0  2  0  0  0  0
    0.0000   -0.8250    0.0000 O   0  0  0  0  0  0  0  2  0  0  0  0
  1  2  2  0        0
  1  3  1  0        0
  3  4  1  0        0
  4  5  1  0        0
  1  6  1  0        0
  6  7  1  0        0
  7  8  1  0        0
  1  9  1  0        0
M  END
>  <CAS RN>
5871170

>  <SMILES>
P(=S)(OCC)(OCC)O

>  <Measured or Estimated Log10(mmol/L)>
-0.230875342

$$$$

CDXL12

 11 10  0  0  0  0  0  0  0  0999 V2000
    0.0000   -0.0000    0.0000 U   0  0  0  0  0  0  0  2  0  0  0  0
   -0.4125   -0.7145    0.0000 O   0  0  0  0  0  0  0  2  0  0  0  0
    0.4125    0.7145    0.0000 O   0  0  0  0  0  0  0  2  0  0  0  0
   -0.7145    0.4125    0.0000 O   0  0  0  0  0  0  0  2  0  0  0  0
   -1.4289   -0.0000    0.0000 C   0  0  0  0  0  0  0  2  0  0  0  0
   -1.4289   -0.8250    0.0000 O   0  0  0  0  0  0  0  2  0  0  0  0
   -2.1434    0.4125    0.0000 C   0  0  0  0  0  0  0  2  0  0  0  0
    0.7145   -0.4125    0.0000 O   0  0  0  0  0  0  0  2  0  0  0  0
    1.4289   -0.0000    0.0000 C   0  0  0  0  0  0  0  2  0  0  0  0
    1.4289    0.8250    0.0000 O   0  0  0  0  0  0  0  2  0  0  0  0
    2.1434   -0.4125    0.0000 C   0  0  0  0  0  0  0  2  0  0  0  0
  1  2  2  0        0
  1  3  2  0        0
  1  4  1  0        0
  4  5  1  0        0
  5  6  2  0        0
  5  7  1  0        0
  1  8  1  0        0
  8  9  1  0        0
  9 10  2  0        0
  9 11  1  0        0
M  END
>  <CAS RN>
6159440

>  <SMILES>
[U](=O)(=O)(OC(=O)C)OC(=O)C

>  <Measured or Estimated Log10(mmol/L)>
-1.111850361

$$$$

CDXL12

 17 16  0  0  0  0  0  0  0  0999 V2000
    5.0013    0.2062    0.0000 C   0  0  0  0  0  0  0  2  0  0  0  0
    4.2868   -0.2062    0.0000 Si  0  0  0  0  0  0  0  2  0  0  0  0
    3.5724   -0.6188    0.0000 O   0  0  0  0  0  0  0  2  0  0  0  0
    2.8579   -0.2063    0.0000 C   0  0  0  0  0  0  0  2  0  0  0  0
    2.1434   -0.6188    0.0000 C   0  0  0  0  0  0  0  2  0  0  0  0
    1.4289   -0.2063    0.0000 C   0  0  0  0  0  0  0  2  0  0  0  0
    0.7145   -0.6188    0.0000 C   0  0  0  0  0  0  0  2  0  0  0  0
    0.0000   -0.2063    0.0000 C   0  0  0  0  0  0  0  2  0  0  0  0
   -0.7145   -0.6188    0.0000 C   0  0  0  0  0  0  0  2  0  0  0  0
   -1.4289   -0.2063    0.0000 C   0  0  0  0  0  0  0  2  0  0  0  0
   -2.1434   -0.6188    0.0000 C   0  0  0  0  0  0  0  2  0  0  0  0
   -2.8579   -0.2063    0.0000 C   0  0  0  0  0  0  0  2  0  0  0  0
   -3.5724   -0.6188    0.0000 C   0  0  0  0  0  0  0  2  0  0  0  0
   -4.2868   -0.2063    0.0000 C   0  0  0  0  0  0  0  2  0  0  0  0
   -5.0013   -0.6188    0.0000 C   0  0  0  0  0  0  0  2  0  0  0  0
    4.2868    0.6188    0.0000 C   0  0  0  0  0  0  0  2  0  0  0  0
    5.0013   -0.6188    0.0000 C   0  0  0  0  0  0  0  2  0  0  0  0
  1  2  1  0        0
  2  3  1  0        0
  3  4  1  0        0
  4  5  1  0        0
  5  6  1  0        0
  6  7  1  0        0
  7  8  1  0        0
  8  9  1  0        0
  9 10  1  0        0
 10 11  1  0        0
 11 12  1  0        0
 12 13  1  0        0
 13 14  1  0        0
 14 15  1  0        0
  2 16  1  0        0
  2 17  1  0        0
M  END
>  <CAS RN>
6221881

>  <SMILES>
C[Si](OCCCCCCCCCCCC)(C)C

>  <Measured or Estimated Log10(mmol/L)>
-3.133743899

$$$$

CDXL12

  7  6  0  0  0  0  0  0  0  0999 V2000
    0.0000   -0.0000    0.0000 C   0  0  0  0  0  0  0  2  0  0  0  0
   -0.7145   -0.4125    0.0000 S   0  0  0  0  0  0  0  2  0  0  0  0
   -1.4289   -0.0000    0.0000 C   0  0  0  0  0  0  0  2  0  0  0  0
   -2.1434    0.4125    0.0000 N   0  0  0  0  0  0  0  2  0  0  0  0
    0.7145   -0.4125    0.0000 S   0  0  0  0  0  0  0  2  0  0  0  0
    1.4289   -0.0000    0.0000 C   0  0  0  0  0  0  0  2  0  0  0  0
    2.1434    0.4125    0.0000 N   0  0  0  0  0  0  0  2  0  0  0  0
  1  2  1  0        0
  2  3  1  0        0
  3  4  3  0        0
  1  5  1  0        0
  5  6  1  0        0
  6  7  3  0        0
M  END
>  <CAS RN>
6317186

>  <SMILES>
C(SC#N)SC#N

>  <Measured or Estimated Log10(mmol/L)>
-3.251258103

$$$$

CDXL12

  9  8  0  0  0  0  0  0  0  0999 V2000
    0.0000    0.8250    0.0000 S   0  0  0  0  0  0  0  2  0  0  0  0
    0.0000    0.0000    0.0000 P   0  0  0  0  0  0  0  2  0  0  0  0
    0.0000   -0.8250    0.0000 O   0  0  0  0  0  0  0  2  0  0  0  0
   -0.7145   -0.4125    0.0000 O   0  0  0  0  0  0  0  2  0  0  0  0
   -1.4289   -0.0000    0.0000 C   0  0  0  0  0  0  0  2  0  0  0  0
   -2.1434   -0.4125    0.0000 C   0  0  0  0  0  0  0  2  0  0  0  0
    0.7145   -0.4125    0.0000 O   0  0  0  0  0  0  0  2  0  0  0  0
    1.4289   -0.0000    0.0000 C   0  0  0  0  0  0  0  2  0  0  0  0
    2.1434   -0.4125    0.0000 C   0  0  0  0  0  0  0  2  0  0  0  0
  1  2  2  0        0
  2  3  1  0        0
  2  4  1  0        0
  4  5  1  0        0
  5  6  1  0        0
  2  7  1  0        0
  7  8  1  0        0
  8  9  1  0        0
M  END
>  <CAS RN>
6389817

>  <SMILES>
S=P(O)(OCC)OCC

>  <Measured or Estimated Log10(mmol/L)>
-0.914098726

$$$$

CDXL12

 14 15  0  0  0  0  0  0  0  0999 V2000
    0.7145   -0.6188    0.0000 N   0  0  0  0  0  0  0  2  0  0  0  0
    0.0000   -0.2062    0.0000 C   0  0  0  0  0  0  0  2  0  0  0  0
   -0.7145   -0.6187    0.0000 N   0  0  0  0  0  0  0  2  0  0  0  0
   -1.4289   -0.2062    0.0000 C   0  0  0  0  0  0  0  2  0  0  0  0
   -2.1434   -0.6187    0.0000 Cl  0  0  0  0  0  0  0  2  0  0  0  0
   -1.4289    0.6188    0.0000 N   0  0  0  0  0  0  0  2  0  0  0  0
   -0.7145    1.0313    0.0000 C   0  0  0  0  0  0  0  2  0  0  0  0
   -0.7145    1.8563    0.0000 Cl  0  0  0  0  0  0  0  2  0  0  0  0
    0.0000    0.6188    0.0000 N   0  0  0  0  0  0  0  2  0  0  0  0
    1.4289   -0.2062    0.0000 C   0  0  0  0  0  0  0  2  0  0  0  0
    2.1434   -0.6188    0.0000 C   0  0  0  0  0  0  0  2  0  0  0  0
    2.1434   -1.4438    0.0000 O   0  0  0  0  0  0  0  2  0  0  0  0
    1.4289   -1.8563    0.0000 C   0  0  0  0  0  0  0  2  0  0  0  0
    0.7145   -1.4438    0.0000 C   0  0  0  0  0  0  0  2  0  0  0  0
  1  2  1  0        0
  2  3  4  0        0
  3  4  4  0        0
  4  5  1  0        0
  4  6  4  0        0
  6  7  4  0        0
  7  8  1  0        0
  7  9  4  0        0
  2  9  4  0        0
  1 10  1  0        0
 10 11  1  0        0
 11 12  1  0        0
 12 13  1  0        0
 13 14  1  0        0
  1 14  1  0        0
M  END
>  <CAS RN>
6601225

>  <SMILES>
N1(c2nc(Cl)nc(Cl)n2)CCOCC1

>  <Measured or Estimated Log10(mmol/L)>
-2.188479874

$$$$

CDXL12

 10 10  0  0  0  0  0  0  0  0999 V2000
    0.7145    0.4125    0.0000 C   0  0  0  0  0  0  0  2  0  0  0  0
    0.7145   -0.4125    0.0000 C   0  0  0  0  0  0  0  2  0  0  0  0
    0.0000   -0.8250    0.0000 C   0  0  0  0  0  0  0  2  0  0  0  0
   -0.7145   -0.4125    0.0000 C   0  0  0  0  0  0  0  2  0  0  0  0
   -0.7145    0.4125    0.0000 C   0  0  0  0  0  0  0  2  0  0  0  0
   -1.4289    0.8250    0.0000 Cl  0  0  0  0  0  0  0  2  0  0  0  0
    0.0000    0.8250    0.0000 C   0  0  0  0  0  0  0  2  0  0  0  0
   -1.4289   -0.8250    0.0000 Cl  0  0  0  0  0  0  0  2  0  0  0  0
    1.4289   -0.8250    0.0000 Cl  0  0  0  0  0  0  0  2  0  0  0  0
    1.4289    0.8250    0.0000 C   0  0  0  0  0  0  0  2  0  0  0  0
  1  2  4  0        0
  2  3  4  0        0
  3  4  4  0        0
  4  5  4  0        0
  5  6  1  0        0
  5  7  4  0        0
  1  7  4  0        0
  4  8  1  0        0
  2  9  1  0        0
  1 10  1  0        0
M  END
>  <CAS RN>
6639301

>  <SMILES>
c1(c(cc(c(Cl)c1)Cl)Cl)C

>  <Measured or Estimated Log10(mmol/L)>
-2.35732264

$$$$

CDXL12

 12 12  0  0  0  0  0  0  0  0999 V2000
    2.1434   -0.4125    0.0000 C   0  0  0  0  0  0  0  2  0  0  0  0
    1.4289   -0.8250    0.0000 S   0  0  0  0  0  0  0  2  0  0  0  0
    0.7145   -0.4125    0.0000 I   0  0  0  0  0  0  0  2  0  0  0  0
    0.0000   -0.8250    0.0000 O   0  0  0  0  0  0  0  2  0  0  0  0
   -0.7145   -0.4125    0.0000 C   0  0  0  0  0  0  0  2  0  0  0  0
   -1.4289   -0.8250    0.0000 C   0  0  0  0  0  0  0  2  0  0  0  0
   -2.1434   -0.4125    0.0000 C   0  0  0  0  0  0  0  2  0  0  0  0
   -2.1434    0.4125    0.0000 C   0  0  0  0  0  0  0  2  0  0  0  0
   -1.4289    0.8250    0.0000 C   0  0  0  0  0  0  0  2  0  0  0  0
   -0.7145    0.4125    0.0000 C   0  0  0  0  0  0  0  2  0  0  0  0
    1.1270    0.3020    0.0000 C   0  0  0  0  0  0  0  2  0  0  0  0
    0.3020    0.3020    0.0000 C   0  0  0  0  0  0  0  2  0  0  0  0
  1  2  1  0        0
  2  3  1  0        0
  3  4  1  0        0
  4  5  1  0        0
  5  6  2  0        0
  6  7  1  0        0
  7  8  1  0        0
  8  9  1  0        0
  9 10  1  0        0
  5 10  1  0        0
  3 11  1  0        0
  3 12  1  0        0
M  END
>  <CAS RN>
6651361

>  <SMILES>
CSI(O\C\1=C\CCCC1)(C)C

>  <Measured or Estimated Log10(mmol/L)>
-0.62

$$$$

CDXL12

 28 29  0  0  0  0  0  0  0  0999 V2000
    1.4289    3.5063    0.0000 C   0  0  0  0  0  0  0  2  0  0  0  0
    1.4289    2.6812    0.0000 C   0  0  0  0  0  0  0  2  0  0  0  0
    0.7145    2.2687    0.0000 O   0  0  0  0  0  0  0  2  0  0  0  0
    0.7145    1.4438    0.0000 C   0  0  0  0  0  0  0  2  0  0  0  0
    1.4289    1.0313    0.0000 C   0  0  0  0  0  0  0  2  0  0  0  0
    1.4289    0.2062    0.0000 C   0  0  0  0  0  0  0  2  0  0  0  0
    0.7145   -0.2062    0.0000 C   0  0  0  0  0  0  0  2  0  0  0  0
   -0.0000    0.2063    0.0000 C   0  0  0  0  0  0  0  2  0  0  0  0
   -0.0000    1.0313    0.0000 C   0  0  0  0  0  0  0  2  0  0  0  0
    0.7145   -1.0312    0.0000 C   0  0  0  0  0  0  0  2  0  0  0  0
    1.4289   -1.4437    0.0000 C   0  0  0  0  0  0  0  2  0  0  0  0
    2.1434   -1.0312    0.0000 C   0  0  0  0  0  0  0  2  0  0  0  0
    2.1434   -0.2062    0.0000 O   0  0  0  0  0  0  0  2  0  0  0  0
    2.8579   -1.4437    0.0000 O   0  5  0  0  0  0  0  2  0  0  0  0
   -0.0000   -1.4437    0.0000 N   0  0  0  0  0  0  0  2  0  0  0  0
   -0.7145   -1.0312    0.0000 C   0  0  0  0  0  0  0  2  0  0  0  0
   -0.7145   -0.2062    0.0000 O   0  0  0  0  0  0  0  2  0  0  0  0
   -1.4289   -1.4437    0.0000 C   0  0  0  0  0  0  0  2  0  0  0  0
   -2.1434   -1.0312    0.0000 C   0  0  0  0  0  0  0  2  0  0  0  0
   -2.8579   -1.4437    0.0000 C   0  0  0  0  0  0  0  2  0  0  0  0
   -2.8579   -2.2687    0.0000 C   0  0  0  0  0  0  0  2  0  0  0  0
   -2.1434   -2.6812    0.0000 C   0  0  0  0  0  0  0  2  0  0  0  0
   -1.4289   -2.2687    0.0000 C   0  0  0  0  0  0  0  2  0  0  0  0
   -0.7145   -2.6812    0.0000 N   0  0  0  0  0  0  0  2  0  0  0  0
   -0.7145   -3.5063    0.0000 O   0  0  0  0  0  0  0  2  0  0  0  0
   -0.0000   -2.2687    0.0000 O   0  0  0  0  0  0  0  2  0  0  0  0
    2.1434    1.4438    0.0000 O   0  0  0  0  0  0  0  2  0  0  0  0
    2.8579    1.0313    0.0000 C   0  0  0  0  0  0  0  2  0  0  0  0
  1  2  1  0        0
  2  3  1  0        0
  3  4  1  0        0
  4  5  4  0        0
  5  6  4  0        0
  6  7  4  0        0
  7  8  4  0        0
  8  9  4  0        0
  4  9  4  0        0
  7 10  1  0        0
 10 11  1  0        0
 11 12  1  0        0
 12 13  2  0        0
 12 14  1  0        0
 10 15  1  0        0
 15 16  1  0        0
 16 17  2  0        0
 16 18  1  0        0
 18 19  4  0        0
 19 20  4  0        0
 20 21  4  0        0
 21 22  4  0        0
 22 23  4  0        0
 18 23  4  0        0
 23 24  1  0        0
 24 25  2  0        0
 24 26  2  0        0
  5 27  1  0        0
 27 28  1  0        0
M  CHG  1  14  -1
M  END
>  <CAS RN>
6753475

>  <SMILES>
CCOc1c(cc(cc1)C(CC(=O)[O-])NC(=O)c1ccccc1N(=O)=O)OC

>  <Measured or Estimated Log10(mmol/L)>
-0.103987459

$$$$

CDXL12

  8  8  0  0  0  0  0  0  0  0999 V2000
    1.0717   -0.8250    0.0000 C   0  0  0  0  0  0  0  2  0  0  0  0
    0.3572   -0.4125    0.0000 C   0  0  0  0  0  0  0  2  0  0  0  0
   -0.3572   -0.8250    0.0000 C   0  0  0  0  0  0  0  2  0  0  0  0
   -1.0717   -0.4125    0.0000 C   0  0  0  0  0  0  0  2  0  0  0  0
   -1.0717    0.4125    0.0000 C   0  0  0  0  0  0  0  2  0  0  0  0
   -0.3572    0.8250    0.0000 C   0  0  0  0  0  0  0  2  0  0  0  0
    0.3572    0.4125    0.0000 C   0  0  0  0  0  0  0  2  0  0  0  0
    1.0717    0.8250    0.0000 C   0  0  0  0  0  0  0  2  0  0  0  0
  1  2  1  0        0
  2  3  1  0        0
  3  4  1  0        0
  4  5  1  0        0
  5  6  1  0        0
  6  7  1  0        0
  2  7  1  0        0
  7  8  1  0        0
M  END
>  <CAS RN>
6876239

>  <SMILES>
CC1CCCCC1C

>  <Measured or Estimated Log10(mmol/L)>
-1.36

$$$$

CDXL12

 14 13  0  0  0  0  0  0  0  0999 V2000
    2.8579    0.2062    0.0000 C   0  0  0  0  0  0  0  2  0  0  0  0
    2.1434   -0.2062    0.0000 N   0  0  0  0  0  0  0  2  0  0  0  0
    1.4289    0.2062    0.0000 C   0  0  0  0  0  0  0  2  0  0  0  0
    1.4289    1.0312    0.0000 O   0  0  0  0  0  0  0  2  0  0  0  0
    0.7145   -0.2062    0.0000 C   0  0  0  0  0  0  0  2  0  0  0  0
   -0.0000    0.2062    0.0000 C   0  0  0  0  0  0  0  2  0  0  0  0
   -0.0000    1.0313    0.0000 C   0  0  0  0  0  0  0  2  0  0  0  0
   -0.7145   -0.2062    0.0000 O   0  0  0  0  0  0  0  2  0  0  0  0
   -1.4289    0.2062    0.0000 P   0  0  0  0  0  0  0  2  0  0  0  0
   -1.4289    1.0313    0.0000 O   0  0  0  0  0  0  0  2  0  0  0  0
   -2.1434   -0.2062    0.0000 O   0  0  0  0  0  0  0  2  0  0  0  0
   -2.8579    0.2062    0.0000 C   0  0  0  0  0  0  0  2  0  0  0  0
   -1.4289   -0.6188    0.0000 O   0  0  0  0  0  0  0  2  0  0  0  0
   -2.1434   -1.0313    0.0000 C   0  0  0  0  0  0  0  2  0  0  0  0
  1  2  1  0        0
  2  3  1  0        0
  3  4  2  0        0
  3  5  1  0        0
  5  6  2  0        0
  6  7  1  0        0
  6  8  1  0        0
  8  9  1  0        0
  9 10  2  0        0
  9 11  1  0        0
 11 12  1  0        0
  9 13  1  0        0
 13 14  1  0        0
M  END
>  <CAS RN>
6923224

>  <SMILES>
CNC(=O)C=C(C)OP(=O)(OC)OC

>  <Measured or Estimated Log10(mmol/L)>
-4.650090746

$$$$

CDXL12

  6  5  0  0  0  0  0  0  0  0999 V2000
    0.3572    0.2062    0.0000 C   0  0  0  0  0  0  0  2  0  0  0  0
    1.0717   -0.2062    0.0000 N   0  0  0  0  0  0  0  2  0  0  0  0
    0.3572    1.0313    0.0000 S   0  0  0  0  0  0  0  2  0  0  0  0
   -0.3572   -0.2062    0.0000 N   0  0  0  0  0  0  0  2  0  0  0  0
   -1.0717    0.2062    0.0000 C   0  0  0  0  0  0  0  2  0  0  0  0
   -0.3572   -1.0313    0.0000 C   0  0  0  0  0  0  0  2  0  0  0  0
  1  2  1  0        0
  1  3  2  0        0
  1  4  1  0        0
  4  5  1  0        0
  4  6  1  0        0
M  END
>  <CAS RN>
6972050

>  <SMILES>
C(N)(=S)N(C)C

>  <Measured or Estimated Log10(mmol/L)>
-0.394514219

$$$$

CDXL12

 19 18  0  0  0  0  0  0  0  0999 V2000
    4.2868    0.0000    0.0000 S   0  0  0  0  0  0  0  2  0  0  0  0
    4.6993   -0.7145    0.0000 O   0  0  0  0  0  0  0  2  0  0  0  0
    3.8743    0.7145    0.0000 O   0  0  0  0  0  0  0  2  0  0  0  0
    5.0013    0.4125    0.0000 O   0  0  0  0  0  0  0  2  0  0  0  0
    5.7158   -0.0000    0.0000 Na  0  0  0  0  0  0  0  2  0  0  0  0
    3.5724   -0.4125    0.0000 C   0  0  0  0  0  0  0  2  0  0  0  0
    2.8579   -0.0000    0.0000 C   0  0  0  0  0  0  0  2  0  0  0  0
    2.1434   -0.4125    0.0000 C   0  0  0  0  0  0  0  2  0  0  0  0
    1.4289   -0.0000    0.0000 C   0  0  0  0  0  0  0  2  0  0  0  0
    0.7145   -0.4125    0.0000 C   0  0  0  0  0  0  0  2  0  0  0  0
    0.0000   -0.0000    0.0000 C   0  0  0  0  0  0  0  2  0  0  0  0
   -0.7145   -0.4125    0.0000 C   0  0  0  0  0  0  0  2  0  0  0  0
   -1.4289   -0.0000    0.0000 C   0  0  0  0  0  0  0  2  0  0  0  0
   -2.1434   -0.4125    0.0000 C   0  0  0  0  0  0  0  2  0  0  0  0
   -2.8579   -0.0000    0.0000 C   0  0  0  0  0  0  0  2  0  0  0  0
   -3.5724   -0.4125    0.0000 C   0  0  0  0  0  0  0  2  0  0  0  0
   -4.2868   -0.0000    0.0000 C   0  0  0  0  0  0  0  2  0  0  0  0
   -5.0013   -0.4125    0.0000 C   0  0  0  0  0  0  0  2  0  0  0  0
   -5.7158   -0.0000    0.0000 C   0  0  0  0  0  0  0  2  0  0  0  0
  1  2  2  0        0
  1  3  2  0        0
  1  4  1  0        0
  4  5  1  0        0
  1  6  1  0        0
  6  7  1  0        0
  7  8  1  0        0
  8  9  1  0        0
  9 10  1  0        0
 10 11  1  0        0
 11 12  1  0        0
 12 13  1  0        0
 13 14  1  0        0
 14 15  1  0        0
 15 16  1  0        0
 16 17  1  0        0
 17 18  1  0        0
 18 19  1  0        0
M  END
>  <CAS RN>
6994452

>  <SMILES>
S(=O)(=O)(O[Na])CCCCCCCCCCCCCC

>  <Measured or Estimated Log10(mmol/L)>
-0.803809218

$$$$

CDXL12

 42 41  0  0  0  0  0  0  0  0999 V2000
  -14.6467   -0.2062    0.0000 C   0  0  0  0  0  0  0  2  0  0  0  0
  -13.9322    0.2062    0.0000 C   0  0  0  0  0  0  0  2  0  0  0  0
  -13.2177   -0.2062    0.0000 C   0  0  0  0  0  0  0  2  0  0  0  0
  -12.5032    0.2062    0.0000 C   0  0  0  0  0  0  0  2  0  0  0  0
  -11.7888   -0.2062    0.0000 C   0  0  0  0  0  0  0  2  0  0  0  0
  -11.0743    0.2062    0.0000 C   0  0  0  0  0  0  0  2  0  0  0  0
  -10.3598   -0.2062    0.0000 C   0  0  0  0  0  0  0  2  0  0  0  0
   -9.6454    0.2062    0.0000 C   0  0  0  0  0  0  0  2  0  0  0  0
   -8.9309   -0.2062    0.0000 C   0  0  0  0  0  0  0  2  0  0  0  0
   -8.2164    0.2062    0.0000 C   0  0  0  0  0  0  0  2  0  0  0  0
   -7.5019   -0.2062    0.0000 C   0  0  0  0  0  0  0  2  0  0  0  0
   -6.7875    0.2062    0.0000 C   0  0  0  0  0  0  0  2  0  0  0  0
   -6.0730   -0.2062    0.0000 C   0  0  0  0  0  0  0  2  0  0  0  0
   -5.3585    0.2062    0.0000 C   0  0  0  0  0  0  0  2  0  0  0  0
   -4.6441   -0.2062    0.0000 O   0  0  0  0  0  0  0  2  0  0  0  0
   -3.9296    0.2062    0.0000 C   0  0  0  0  0  0  0  2  0  0  0  0
   -3.2151   -0.2062    0.0000 C   0  0  0  0  0  0  0  2  0  0  0  0
   -2.5006    0.2062    0.0000 O   0  0  0  0  0  0  0  2  0  0  0  0
   -1.7862   -0.2062    0.0000 C   0  0  0  0  0  0  0  2  0  0  0  0
   -1.0717    0.2062    0.0000 C   0  0  0  0  0  0  0  2  0  0  0  0
   -0.3572   -0.2062    0.0000 O   0  0  0  0  0  0  0  2  0  0  0  0
    0.3572    0.2062    0.0000 C   0  0  0  0  0  0  0  2  0  0  0  0
    1.0717   -0.2062    0.0000 C   0  0  0  0  0  0  0  2  0  0  0  0
    1.7862    0.2062    0.0000 O   0  0  0  0  0  0  0  2  0  0  0  0
    2.5006   -0.2062    0.0000 C   0  0  0  0  0  0  0  2  0  0  0  0
    3.2151    0.2062    0.0000 C   0  0  0  0  0  0  0  2  0  0  0  0
    3.9296   -0.2062    0.0000 O   0  0  0  0  0  0  0  2  0  0  0  0
    4.6441    0.2062    0.0000 C   0  0  0  0  0  0  0  2  0  0  0  0
    5.3585   -0.2062    0.0000 C   0  0  0  0  0  0  0  2  0  0  0  0
    6.0730    0.2062    0.0000 O   0  0  0  0  0  0  0  2  0  0  0  0
    6.7875   -0.2062    0.0000 C   0  0  0  0  0  0  0  2  0  0  0  0
    7.5019    0.2062    0.0000 C   0  0  0  0  0  0  0  2  0  0  0  0
    8.2164   -0.2062    0.0000 O   0  0  0  0  0  0  0  2  0  0  0  0
    8.9309    0.2062    0.0000 C   0  0  0  0  0  0  0  2  0  0  0  0
    9.6454   -0.2062    0.0000 C   0  0  0  0  0  0  0  2  0  0  0  0
   10.3598    0.2062    0.0000 O   0  0  0  0  0  0  0  2  0  0  0  0
   11.0743   -0.2062    0.0000 C   0  0  0  0  0  0  0  2  0  0  0  0
   11.7888    0.2062    0.0000 C   0  0  0  0  0  0  0  2  0  0  0  0
   12.5032   -0.2062    0.0000 O   0  0  0  0  0  0  0  2  0  0  0  0
   13.2177    0.2062    0.0000 C   0  0  0  0  0  0  0  2  0  0  0  0
   13.9322   -0.2062    0.0000 C   0  0  0  0  0  0  0  2  0  0  0  0
   14.6467    0.2062    0.0000 O   0  0  0  0  0  0  0  2  0  0  0  0
  1  2  1  0        0
  2  3  1  0        0
  3  4  1  0        0
  4  5  1  0        0
  5  6  1  0        0
  6  7  1  0        0
  7  8  1  0        0
  8  9  1  0        0
  9 10  1  0        0
 10 11  1  0        0
 11 12  1  0        0
 12 13  1  0        0
 13 14  1  0        0
 14 15  1  0        0
 15 16  1  0        0
 16 17  1  0        0
 17 18  1  0        0
 18 19  1  0        0
 19 20  1  0        0
 20 21  1  0        0
 21 22  1  0        0
 22 23  1  0        0
 23 24  1  0        0
 24 25  1  0        0
 25 26  1  0        0
 26 27  1  0        0
 27 28  1  0        0
 28 29  1  0        0
 29 30  1  0        0
 30 31  1  0        0
 31 32  1  0        0
 32 33  1  0        0
 33 34  1  0        0
 34 35  1  0        0
 35 36  1  0        0
 36 37  1  0        0
 37 38  1  0        0
 38 39  1  0        0
 39 40  1  0        0
 40 41  1  0        0
 41 42  1  0        0
M  END
>  <CAS RN>
7300814

>  <SMILES>
CCCCCCCCCCCCCCOCCOCCOCCOCCOCCOCCOCCOCCOCCO

>  <Measured or Estimated Log10(mmol/L)>
-1.781627414

$$$$

CDXL12

  1  0  0  0  0  0  0  0  0  0999 V2000
    0.0000    0.0000    0.0000 Al  0  1  0  0  0  0  0  2  0  0  0  0
M  CHG  1   1   3
M  END
>  <CAS RN>
7429905

>  <SMILES>
[Al+3]

>  <Measured or Estimated Log10(mmol/L)>
-1.214179923

$$$$

CDXL12

  1  0  0  0  0  0  0  0  0  0999 V2000
    0.0000    0.0000    0.0000 Pb  0  0  0  0  0  0  0  2  0  0  0  0
M  END
>  <CAS RN>
7439921

>  <SMILES>
[Pb]

>  <Measured or Estimated Log10(mmol/L)>
-1.672937075

$$$$

CDXL12

  1  0  0  0  0  0  0  0  0  0999 V2000
    0.0000    0.0000    0.0000 As  0  7  0  0  0  0  0  2  0  0  0  0
M  CHG  1   1  -3
M  END
>  <CAS RN>
7440382

>  <SMILES>
[As-3]

>  <Measured or Estimated Log10(mmol/L)>
-1.294823447

$$$$

CDXL12

  1  0  0  0  0  0  0  0  0  0999 V2000
    0.0000    0.0000    0.0000 Ba  0  0  0  0  0  0  0  2  0  0  0  0
M  END
>  <CAS RN>
7440393

>  <SMILES>
[Ba]

>  <Measured or Estimated Log10(mmol/L)>
0.474986814

$$$$

CDXL12

  1  0  0  0  0  0  0  0  0  0999 V2000
    0.0000    0.0000    0.0000 Cd  0  0  0  0  0  0  0  2  0  0  0  0
M  END
>  <CAS RN>
7440439

>  <SMILES>
[Cd]

>  <Measured or Estimated Log10(mmol/L)>
-3.258374622

$$$$

CDXL12

  1  0  0  0  0  0  0  0  0  0999 V2000
    0.0000    0.0000    0.0000 Cr  0  0  0  0  0  0  0  2  0  0  0  0
M  END
>  <CAS RN>
7440473

>  <SMILES>
[Cr]

>  <Measured or Estimated Log10(mmol/L)>
-3.373547254

$$$$

CDXL12

  1  0  0  0  0  0  0  0  0  0999 V2000
    0.0000    0.0000    0.0000 Cu  0  0  0  0  0  0  0  2  0  0  0  0
M  END
>  <CAS RN>
7440508

>  <SMILES>
[Cu]

>  <Measured or Estimated Log10(mmol/L)>
-3.159594534

$$$$

CDXL12

  1  0  0  0  0  0  0  0  0  0999 V2000
    0.0000    0.0000    0.0000 V   0  0  0  0  0  0  0  2  0  0  0  0
M  END
>  <CAS RN>
7440622

>  <SMILES>
[V]

>  <Measured or Estimated Log10(mmol/L)>
-1.387129261

$$$$

CDXL12

  1  0  0  0  0  0  0  0  0  0999 V2000
    0.0000    0.0000    0.0000 Zn  0  0  0  0  0  0  0  2  0  0  0  0
M  END
>  <CAS RN>
7440666

>  <SMILES>
[Zn]

>  <Measured or Estimated Log10(mmol/L)>
-2.982869572

$$$$

CDXL12

  3  2  0  0  0  0  0  0  0  0999 V2000
    0.8250    0.0000    0.0000 O   0  0  0  0  0  0  0  2  0  0  0  0
    0.0000    0.0000    0.0000 Se  0  0  0  0  0  0  0  2  0  0  0  0
   -0.8250    0.0000    0.0000 O   0  0  0  0  0  0  0  2  0  0  0  0
  1  2  2  0        0
  2  3  2  0        0
M  END
>  <CAS RN>
7446084

>  <SMILES>
O=[Se]=O

>  <Measured or Estimated Log10(mmol/L)>
-1.363917375

$$$$

CDXL12

  5  4  0  0  0  0  0  0  0  0999 V2000
    0.0000   -0.0000    0.0000 S   0  0  0  0  0  0  0  2  0  0  0  0
    0.0000   -0.8250    0.0000 O   0  0  0  0  0  0  0  2  0  0  0  0
    0.0000    0.8250    0.0000 O   0  0  0  0  0  0  0  2  0  0  0  0
   -0.8250   -0.0000    0.0000 O   0  0  0  0  0  0  0  2  0  0  0  0
    0.8250   -0.0000    0.0000 O   0  0  0  0  0  0  0  2  0  0  0  0
  1  2  2  0        0
  1  3  2  0        0
  1  4  1  0        0
  1  5  1  0        0
M  END
>  <CAS RN>
7446186

>  <SMILES>
S(=O)(=O)(O)O

>  <Measured or Estimated Log10(mmol/L)>
-1.96625688

$$$$

CDXL12

  5  4  0  0  0  0  0  0  0  0999 V2000
    0.8250   -0.0000    0.0000 O   0  5  0  0  0  0  0  2  0  0  0  0
    0.0000   -0.0000    0.0000 S   0  0  0  0  0  0  0  2  0  0  0  0
    0.0000   -0.8250    0.0000 O   0  0  0  0  0  0  0  2  0  0  0  0
    0.0000    0.8250    0.0000 O   0  0  0  0  0  0  0  2  0  0  0  0
   -0.8250   -0.0000    0.0000 O   0  0  0  0  0  0  0  2  0  0  0  0
  1  2  1  0        0
  2  3  2  0        0
  2  4  2  0        0
  2  5  1  0        0
M  CHG  1   1  -1
M  END
>  <CAS RN>
7446200

>  <SMILES>
[O-]S(=O)(=O)O

>  <Measured or Estimated Log10(mmol/L)>
-1.9

$$$$

CDXL12

  3  2  0  0  0  0  0  0  0  0999 V2000
    0.0000    0.2062    0.0000 Cu  0  0  0  0  0  0  0  2  0  0  0  0
   -0.7145   -0.2062    0.0000 Cl  0  0  0  0  0  0  0  2  0  0  0  0
    0.7145   -0.2062    0.0000 Cl  0  0  0  0  0  0  0  2  0  0  0  0
  1  2  1  0        0
  1  3  1  0        0
M  END
>  <CAS RN>
7447394

>  <SMILES>
[Cu](Cl)Cl

>  <Measured or Estimated Log10(mmol/L)>
-3.370544876

$$$$

CDXL12

  2  1  0  0  0  0  0  0  0  0999 V2000
    0.4125    0.0000    0.0000 Cl  0  0  0  0  0  0  0  2  0  0  0  0
   -0.4125    0.0000    0.0000 K   0  0  0  0  0  0  0  2  0  0  0  0
  1  2  1  0        0
M  END
>  <CAS RN>
7447407

>  <SMILES>
Cl[K]

>  <Measured or Estimated Log10(mmol/L)>
0.745594623

$$$$

CDXL12

  2  1  0  0  0  0  0  0  0  0999 V2000
   -0.4125    0.0000    0.0000 Li  0  0  0  0  0  0  0  2  0  0  0  0
    0.4125    0.0000    0.0000 Cl  0  0  0  0  0  0  0  2  0  0  0  0
  1  2  1  0        0
M  END
>  <CAS RN>
7447418

>  <SMILES>
[Li]Cl

>  <Measured or Estimated Log10(mmol/L)>
-0.247093144

$$$$

CDXL12

  6  6  0  0  0  0  0  0  0  0999 V2000
   -0.8109    0.0141    0.0000 O   0  0  0  0  0  0  0  2  0  0  0  0
    0.0141    0.0141    0.0000 S   0  0  0  0  0  0  0  2  0  0  0  0
    0.8109    0.2276    0.0000 O   0  0  0  0  0  0  0  2  0  0  0  0
    0.2276    0.8109    0.0000 O   0  0  0  0  0  0  0  2  0  0  0  0
    0.0141   -0.8109    0.0000 O   0  0  0  0  0  0  0  2  0  0  0  0
   -0.8109   -0.8109    0.0000 Mg  0  0  0  0  0  0  0  2  0  0  0  0
  1  2  1  0        0
  2  3  2  0        0
  2  4  2  0        0
  2  5  1  0        0
  5  6  1  0        0
  1  6  1  0        0
M  END
>  <CAS RN>
7487889

>  <SMILES>
O1S(=O)(=O)O[Mg]1

>  <Measured or Estimated Log10(mmol/L)>
0.887490238

$$$$

CDXL12

  3  2  0  0  0  0  0  0  0  0999 V2000
   -0.7145   -0.2062    0.0000 Cl  0  0  0  0  0  0  0  2  0  0  0  0
    0.0000    0.2062    0.0000 Hg  0  0  0  0  0  0  0  2  0  0  0  0
    0.7145   -0.2062    0.0000 Cl  0  0  0  0  0  0  0  2  0  0  0  0
  1  2  1  0        0
  2  3  1  0        0
M  END
>  <CAS RN>
7487947

>  <SMILES>
Cl[Hg]Cl

>  <Measured or Estimated Log10(mmol/L)>
-3.354821497

$$$$

CDXL12

  2  1  0  0  0  0  0  0  0  0999 V2000
   -0.4125    0.0000    0.0000 I   0  0  0  0  0  0  0  2  0  0  0  0
    0.4125    0.0000    0.0000 I   0  0  0  0  0  0  0  2  0  0  0  0
  1  2  1  0        0
M  END
>  <CAS RN>
7553562

>  <SMILES>
II

>  <Measured or Estimated Log10(mmol/L)>
-2.424047415

$$$$

CDXL12

  7  6  0  0  0  0  0  0  0  0999 V2000
    1.4289    0.0000    0.0000 Na  0  0  0  0  0  0  0  2  0  0  0  0
    0.7145   -0.4125    0.0000 O   0  0  0  0  0  0  0  2  0  0  0  0
    0.0000   -0.0000    0.0000 P   0  0  0  0  0  0  0  2  0  0  0  0
    0.0000    0.8250    0.0000 O   0  0  0  0  0  0  0  2  0  0  0  0
   -0.7145   -0.4125    0.0000 O   0  0  0  0  0  0  0  2  0  0  0  0
   -1.4289   -0.0000    0.0000 Na  0  0  0  0  0  0  0  2  0  0  0  0
    0.0000   -0.8250    0.0000 O   0  0  0  0  0  0  0  2  0  0  0  0
  1  2  1  0        0
  2  3  1  0        0
  3  4  2  0        0
  3  5  1  0        0
  5  6  1  0        0
  3  7  1  0        0
M  END
>  <CAS RN>
7558794

>  <SMILES>
[Na]OP(=O)(O[Na])O

>  <Measured or Estimated Log10(mmol/L)>
1.019748232

$$$$

CDXL12

  5  4  0  0  0  0  0  0  0  0999 V2000
   -1.0717   -0.2062    0.0000 Na  0  0  0  0  0  0  0  2  0  0  0  0
   -0.3572   -0.6187    0.0000 O   0  0  0  0  0  0  0  2  0  0  0  0
    0.3572   -0.2062    0.0000 S   0  0  0  0  0  0  0  2  0  0  0  0
    0.3572    0.6187    0.0000 O   0  0  0  0  0  0  0  2  0  0  0  0
    1.0717   -0.6187    0.0000 O   0  0  0  0  0  0  0  2  0  0  0  0
  1  2  1  0        0
  2  3  1  0        0
  3  4  2  0        0
  3  5  1  0        0
M  END
>  <CAS RN>
7631905

>  <SMILES>
[Na]OS(=O)O

>  <Measured or Estimated Log10(mmol/L)>
0.058267313

$$$$

CDXL12

  5  4  0  0  0  0  0  0  0  0999 V2000
    1.0717   -0.2062    0.0000 Na  0  0  0  0  0  0  0  2  0  0  0  0
    0.3572   -0.6187    0.0000 O   0  0  0  0  0  0  0  2  0  0  0  0
   -0.3572   -0.2062    0.0000 N   0  0  0  0  0  0  0  2  0  0  0  0
   -0.3572    0.6187    0.0000 O   0  0  0  0  0  0  0  2  0  0  0  0
   -1.0717   -0.6187    0.0000 O   0  0  0  0  0  0  0  2  0  0  0  0
  1  2  1  0        0
  2  3  1  0        0
  3  4  2  0        0
  3  5  2  0        0
M  END
>  <CAS RN>
7631994

>  <SMILES>
[Na]ON(=O)=O

>  <Measured or Estimated Log10(mmol/L)>
1.624616052

$$$$

CDXL12

  4  3  0  0  0  0  0  0  0  0999 V2000
   -1.0717    0.2062    0.0000 Na  0  0  0  0  0  0  0  2  0  0  0  0
   -0.3572   -0.2062    0.0000 O   0  0  0  0  0  0  0  2  0  0  0  0
    0.3572    0.2062    0.0000 N   0  0  0  0  0  0  0  2  0  0  0  0
    1.0717   -0.2062    0.0000 O   0  0  0  0  0  0  0  2  0  0  0  0
  1  2  1  0        0
  2  3  1  0        0
  3  4  2  0        0
M  END
>  <CAS RN>
7632000

>  <SMILES>
[Na]ON=O

>  <Measured or Estimated Log10(mmol/L)>
-1.040249034

$$$$

CDXL12

  5  4  0  0  0  0  0  0  0  0999 V2000
    0.0000   -0.0000    0.0000 Sn  0  0  0  0  0  0  0  2  0  0  0  0
   -0.8250   -0.0000    0.0000 Cl  0  0  0  0  0  0  0  2  0  0  0  0
    0.0000   -0.8250    0.0000 Cl  0  0  0  0  0  0  0  2  0  0  0  0
    0.8250   -0.0000    0.0000 Cl  0  0  0  0  0  0  0  2  0  0  0  0
    0.0000    0.8250    0.0000 Cl  0  0  0  0  0  0  0  2  0  0  0  0
  1  2  1  0        0
  1  3  1  0        0
  1  4  1  0        0
  1  5  1  0        0
M  END
>  <CAS RN>
7646788

>  <SMILES>
[Sn](Cl)(Cl)(Cl)Cl

>  <Measured or Estimated Log10(mmol/L)>
-0.898615164

$$$$

CDXL12

  3  2  0  0  0  0  0  0  0  0999 V2000
    0.0000    0.2062    0.0000 Co  0  0  0  0  0  0  0  2  0  0  0  0
   -0.7145   -0.2062    0.0000 Cl  0  0  0  0  0  0  0  2  0  0  0  0
    0.7145   -0.2062    0.0000 Cl  0  0  0  0  0  0  0  2  0  0  0  0
  1  2  1  0        0
  1  3  1  0        0
M  END
>  <CAS RN>
7646799

>  <SMILES>
[Co](Cl)Cl

>  <Measured or Estimated Log10(mmol/L)>
-1.931561574

$$$$

CDXL12

  3  2  0  0  0  0  0  0  0  0999 V2000
   -0.7145   -0.2062    0.0000 Cl  0  0  0  0  0  0  0  2  0  0  0  0
    0.0000    0.2062    0.0000 Zn  0  0  0  0  0  0  0  2  0  0  0  0
    0.7145   -0.2062    0.0000 Cl  0  0  0  0  0  0  0  2  0  0  0  0
  1  2  1  0        0
  2  3  1  0        0
M  END
>  <CAS RN>
7646857

>  <SMILES>
Cl[Zn]Cl

>  <Measured or Estimated Log10(mmol/L)>
-2.231905212

$$$$

CDXL12

  2  1  0  0  0  0  0  0  0  0999 V2000
   -0.4125    0.0000    0.0000 Na  0  0  0  0  0  0  0  2  0  0  0  0
    0.4125    0.0000    0.0000 Cl  0  0  0  0  0  0  0  2  0  0  0  0
  1  2  1  0        0
M  END
>  <CAS RN>
7647145

>  <SMILES>
[Na]Cl

>  <Measured or Estimated Log10(mmol/L)>
1.89327872

$$$$

CDXL12

  2  1  0  0  0  0  0  0  0  0999 V2000
   -0.4125    0.0000    0.0000 Na  0  0  0  0  0  0  0  2  0  0  0  0
    0.4125    0.0000    0.0000 Br  0  0  0  0  0  0  0  2  0  0  0  0
  1  2  1  0        0
M  END
>  <CAS RN>
7647156

>  <SMILES>
[Na]Br

>  <Measured or Estimated Log10(mmol/L)>
1.936978852

$$$$

CDXL12

  4  3  0  0  0  0  0  0  0  0999 V2000
   -1.0717    0.2062    0.0000 N   0  0  0  0  0  0  0  2  0  0  0  0
   -0.3572   -0.2062    0.0000 H   0  0  0  0  0  0  0  2  0  0  0  0
    0.3572    0.2062    0.0000 H   0  0  0  0  0  0  0  2  0  0  0  0
    1.0717   -0.2062    0.0000 H   0  0  0  0  0  0  0  2  0  0  0  0
  1  2  1  0        0
  2  3  1  0        0
  3  4  1  0        0
M  END
>  <CAS RN>
7664417

>  <SMILES>
N[H][H][H]

>  <Measured or Estimated Log10(mmol/L)>
-0.722645729

$$$$

CDXL12

  2  1  0  0  0  0  0  0  0  0999 V2000
    0.4125    0.0000    0.0000 F   0  0  0  0  0  0  0  2  0  0  0  0
   -0.4125    0.0000    0.0000 Na  0  0  0  0  0  0  0  2  0  0  0  0
  1  2  1  0        0
M  END
>  <CAS RN>
7681494

>  <SMILES>
F[Na]

>  <Measured or Estimated Log10(mmol/L)>
0.908353729

$$$$

CDXL12

  3  2  0  0  0  0  0  0  0  0999 V2000
   -0.7145   -0.2062    0.0000 Na  0  0  0  0  0  0  0  2  0  0  0  0
    0.0000    0.2062    0.0000 O   0  0  0  0  0  0  0  2  0  0  0  0
    0.7145   -0.2062    0.0000 Cl  0  0  0  0  0  0  0  2  0  0  0  0
  1  2  1  0        0
  2  3  1  0        0
M  END
>  <CAS RN>
7681529

>  <SMILES>
[Na]OCl

>  <Measured or Estimated Log10(mmol/L)>
-3.233328776

$$$$

CDXL12

  5  4  0  0  0  0  0  0  0  0999 V2000
    1.0717   -0.2062    0.0000 Na  0  0  0  0  0  0  0  2  0  0  0  0
    0.3572   -0.6187    0.0000 O   0  0  0  0  0  0  0  2  0  0  0  0
   -0.3572   -0.2062    0.0000 I   0  0  0  0  0  0  0  2  0  0  0  0
   -0.3572    0.6187    0.0000 O   0  0  0  0  0  0  0  2  0  0  0  0
   -1.0717   -0.6187    0.0000 O   0  0  0  0  0  0  0  2  0  0  0  0
  1  2  1  0        0
  2  3  1  0        0
  3  4  2  0        0
  3  5  2  0        0
M  END
>  <CAS RN>
7681552

>  <SMILES>
[Na]OI(=O)=O

>  <Measured or Estimated Log10(mmol/L)>
-0.517241678

$$$$

CDXL12

  2  1  0  0  0  0  0  0  0  0999 V2000
    0.4125    0.0000    0.0000 I   0  0  0  0  0  0  0  2  0  0  0  0
   -0.4125    0.0000    0.0000 Na  0  0  0  0  0  0  0  2  0  0  0  0
  1  2  1  0        0
M  END
>  <CAS RN>
7681825

>  <SMILES>
I[Na]

>  <Measured or Estimated Log10(mmol/L)>
-2.446052654

$$$$

CDXL12

  3  2  0  0  0  0  0  0  0  0999 V2000
   -0.7145   -0.2062    0.0000 Br  0  0  0  0  0  0  0  2  0  0  0  0
    0.0000    0.2062    0.0000 Zn  0  0  0  0  0  0  0  2  0  0  0  0
    0.7145   -0.2062    0.0000 Br  0  0  0  0  0  0  0  2  0  0  0  0
  1  2  1  0        0
  2  3  1  0        0
M  END
>  <CAS RN>
7699458

>  <SMILES>
Br[Zn]Br

>  <Measured or Estimated Log10(mmol/L)>
-2.266185413

$$$$

CDXL12

  1  0  0  0  0  0  0  0  0  0999 V2000
    0.0000    0.0000    0.0000 S   0  0  0  0  0  0  0  2  0  0  0  0
M  END
>  <CAS RN>
7704349

>  <SMILES>
S

>  <Measured or Estimated Log10(mmol/L)>
0.4718218

$$$$

CDXL12

  4  3  0  0  0  0  0  0  0  0999 V2000
    0.0000   -0.2062    0.0000 Fe  0  0  0  0  0  0  0  2  0  0  0  0
   -0.7145   -0.6187    0.0000 Cl  0  0  0  0  0  0  0  2  0  0  0  0
    0.7145   -0.6188    0.0000 Cl  0  0  0  0  0  0  0  2  0  0  0  0
    0.0000    0.6188    0.0000 Cl  0  0  0  0  0  0  0  2  0  0  0  0
  1  2  1  0        0
  1  3  1  0        0
  1  4  1  0        0
M  END
>  <CAS RN>
7705080

>  <SMILES>
[Fe](Cl)(Cl)Cl

>  <Measured or Estimated Log10(mmol/L)>
-0.778292545

$$$$

CDXL12

  3  2  0  0  0  0  0  0  0  0999 V2000
    0.0000    0.2062    0.0000 Ni  0  0  0  0  0  0  0  2  0  0  0  0
   -0.7145   -0.2062    0.0000 Cl  0  0  0  0  0  0  0  2  0  0  0  0
    0.7145   -0.2062    0.0000 Cl  0  0  0  0  0  0  0  2  0  0  0  0
  1  2  1  0        0
  1  3  1  0        0
M  END
>  <CAS RN>
7718549

>  <SMILES>
[Ni](Cl)Cl

>  <Measured or Estimated Log10(mmol/L)>
-1.416302226

$$$$

CDXL12

  9  8  0  0  0  0  0  0  0  0999 V2000
    0.0000   -0.4125    0.0000 O   0  0  0  0  0  0  0  2  0  0  0  0
    0.7145    0.0000    0.0000 P   0  0  0  0  0  0  0  2  0  0  0  0
    0.7145    0.8250    0.0000 O   0  0  0  0  0  0  0  2  0  0  0  0
    0.7145   -0.8250    0.0000 O   0  0  0  0  0  0  0  2  0  0  0  0
    1.4289   -0.4125    0.0000 O   0  0  0  0  0  0  0  2  0  0  0  0
   -0.7145   -0.0000    0.0000 P   0  0  0  0  0  0  0  2  0  0  0  0
   -0.7145    0.8250    0.0000 O   0  0  0  0  0  0  0  2  0  0  0  0
   -1.4289   -0.4125    0.0000 O   0  0  0  0  0  0  0  2  0  0  0  0
   -0.7145   -0.8250    0.0000 O   0  0  0  0  0  0  0  2  0  0  0  0
  1  2  1  0        0
  2  3  2  0        0
  2  4  1  0        0
  2  5  1  0        0
  1  6  1  0        0
  6  7  2  0        0
  6  8  1  0        0
  6  9  1  0        0
M  END
>  <CAS RN>
7722885

>  <SMILES>
O(P(=O)(O)O)P(=O)(O)O

>  <Measured or Estimated Log10(mmol/L)>
0.341822636

$$$$

CDXL12

  2  1  0  0  0  0  0  0  0  0999 V2000
   -0.4125    0.0000    0.0000 Br  0  0  0  0  0  0  0  2  0  0  0  0
    0.4125    0.0000    0.0000 Br  0  0  0  0  0  0  0  2  0  0  0  0
  1  2  1  0        0
M  END
>  <CAS RN>
7726956

>  <SMILES>
BrBr

>  <Measured or Estimated Log10(mmol/L)>
-2.203625692

$$$$

CDXL12

 12 11  0  0  0  0  0  0  0  0999 V2000
   -2.5006   -0.2062    0.0000 K   0  0  0  0  0  0  0  2  0  0  0  0
   -1.7862   -0.6188    0.0000 O   0  0  0  0  0  0  0  2  0  0  0  0
   -1.0717   -0.2062    0.0000 S   0  0  0  0  0  0  0  2  0  0  0  0
   -1.4842    0.5082    0.0000 O   0  0  0  0  0  0  0  2  0  0  0  0
   -0.6592   -0.9207    0.0000 O   0  0  0  0  0  0  0  2  0  0  0  0
   -0.3572    0.2062    0.0000 O   0  0  0  0  0  0  0  2  0  0  0  0
    0.3572   -0.2062    0.0000 O   0  0  0  0  0  0  0  2  0  0  0  0
    1.0717    0.2062    0.0000 S   0  0  0  0  0  0  0  2  0  0  0  0
    1.4842   -0.5082    0.0000 O   0  0  0  0  0  0  0  2  0  0  0  0
    0.6592    0.9207    0.0000 O   0  0  0  0  0  0  0  2  0  0  0  0
    1.7862    0.6188    0.0000 O   0  0  0  0  0  0  0  2  0  0  0  0
    2.5006    0.2062    0.0000 K   0  0  0  0  0  0  0  2  0  0  0  0
  1  2  1  0        0
  2  3  1  0        0
  3  4  2  0        0
  3  5  2  0        0
  3  6  1  0        0
  6  7  1  0        0
  7  8  1  0        0
  8  9  2  0        0
  8 10  2  0        0
  8 11  1  0        0
 11 12  1  0        0
M  END
>  <CAS RN>
7727211

>  <SMILES>
[K]OS(=O)(=O)OOS(=O)(=O)O[K]

>  <Measured or Estimated Log10(mmol/L)>
-0.468083925

$$$$

CDXL12

 18 17  0  0  0  0  0  0  0  0999 V2000
   -2.5006    0.2062    0.0000 N   0  3  0  0  0  0  0  2  0  0  0  0
   -3.2151   -0.2063    0.0000 H   0  0  0  0  0  0  0  2  0  0  0  0
   -2.5006   -0.6188    0.0000 H   0  0  0  0  0  0  0  2  0  0  0  0
   -3.2151    0.6187    0.0000 H   0  0  0  0  0  0  0  2  0  0  0  0
   -1.7862    0.6187    0.0000 O   0  0  0  0  0  0  0  2  0  0  0  0
   -1.0717    0.2062    0.0000 S   0  0  0  0  0  0  0  2  0  0  0  0
   -0.6592    0.9207    0.0000 O   0  0  0  0  0  0  0  2  0  0  0  0
   -1.4842   -0.5082    0.0000 O   0  0  0  0  0  0  0  2  0  0  0  0
   -0.3572   -0.2063    0.0000 O   0  0  0  0  0  0  0  2  0  0  0  0
    0.3572    0.2062    0.0000 O   0  0  0  0  0  0  0  2  0  0  0  0
    1.0717   -0.2063    0.0000 S   0  0  0  0  0  0  0  2  0  0  0  0
    1.4842    0.5082    0.0000 O   0  0  0  0  0  0  0  2  0  0  0  0
    0.6592   -0.9207    0.0000 O   0  0  0  0  0  0  0  2  0  0  0  0
    1.7862   -0.6188    0.0000 O   0  0  0  0  0  0  0  2  0  0  0  0
    2.5006   -0.2062    0.0000 N   0  3  0  0  0  0  0  2  0  0  0  0
    3.2151    0.2062    0.0000 H   0  0  0  0  0  0  0  2  0  0  0  0
    2.5006    0.6188    0.0000 H   0  0  0  0  0  0  0  2  0  0  0  0
    3.2151   -0.6188    0.0000 H   0  0  0  0  0  0  0  2  0  0  0  0
  1  2  1  0        0
  1  3  1  0        0
  1  4  1  0        0
  1  5  1  0        0
  5  6  1  0        0
  6  7  2  0        0
  6  8  2  0        0
  6  9  1  0        0
  9 10  1  0        0
 10 11  1  0        0
 11 12  2  0        0
 11 13  2  0        0
 11 14  1  0        0
 14 15  1  0        0
 15 16  1  0        0
 15 17  1  0        0
 15 18  1  0        0
M  CHG  2   1   1  15   1
M  END
>  <CAS RN>
7727540

>  <SMILES>
[N+]([H])([H])([H])OS(=O)(=O)OOS(=O)(=O)O[N+]([H])([H])[H]

>  <Measured or Estimated Log10(mmol/L)>
-0.350136666

$$$$

CDXL12

  6  6  0  0  0  0  0  0  0  0999 V2000
    0.0141    0.0141    0.0000 S   0  0  0  0  0  0  0  2  0  0  0  0
    0.8109    0.2276    0.0000 O   0  0  0  0  0  0  0  2  0  0  0  0
    0.2276    0.8109    0.0000 O   0  0  0  0  0  0  0  2  0  0  0  0
    0.0141   -0.8109    0.0000 O   0  0  0  0  0  0  0  2  0  0  0  0
   -0.8109   -0.8109    0.0000 Zn  0  0  0  0  0  0  0  2  0  0  0  0
   -0.8109    0.0141    0.0000 O   0  0  0  0  0  0  0  2  0  0  0  0
  1  2  2  0        0
  1  3  2  0        0
  1  4  1  0        0
  4  5  1  0        0
  5  6  1  0        0
  1  6  1  0        0
M  END
>  <CAS RN>
7733020

>  <SMILES>
S1(=O)(=O)O[Zn]O1

>  <Measured or Estimated Log10(mmol/L)>
-1.846256411

$$$$

CDXL12

  5  4  0  0  0  0  0  0  0  0999 V2000
   -0.3572   -0.2062    0.0000 N   0  0  0  0  0  0  0  2  0  0  0  0
   -1.0717   -0.6187    0.0000 O   0  0  0  0  0  0  0  2  0  0  0  0
   -0.3572    0.6188    0.0000 O   0  0  0  0  0  0  0  2  0  0  0  0
    0.3572   -0.6188    0.0000 O   0  0  0  0  0  0  0  2  0  0  0  0
    1.0717   -0.2062    0.0000 K   0  0  0  0  0  0  0  2  0  0  0  0
  1  2  2  0        0
  1  3  2  0        0
  1  4  1  0        0
  4  5  1  0        0
M  END
>  <CAS RN>
7757791

>  <SMILES>
N(=O)(=O)O[K]

>  <Measured or Estimated Log10(mmol/L)>
0.685436333

$$$$

CDXL12

  7  6  0  0  0  0  0  0  0  0999 V2000
    0.0000    0.0000    0.0000 S   0  0  0  0  0  0  0  2  0  0  0  0
    0.4125   -0.7145    0.0000 O   0  0  0  0  0  0  0  2  0  0  0  0
   -0.4125    0.7145    0.0000 O   0  0  0  0  0  0  0  2  0  0  0  0
   -0.7145   -0.4125    0.0000 O   0  0  0  0  0  0  0  2  0  0  0  0
   -1.4289   -0.0000    0.0000 Na  0  0  0  0  0  0  0  2  0  0  0  0
    0.7145    0.4125    0.0000 O   0  0  0  0  0  0  0  2  0  0  0  0
    1.4289   -0.0000    0.0000 Na  0  0  0  0  0  0  0  2  0  0  0  0
  1  2  2  0        0
  1  3  2  0        0
  1  4  1  0        0
  4  5  1  0        0
  1  6  1  0        0
  6  7  1  0        0
M  END
>  <CAS RN>
7757826

>  <SMILES>
S(=O)(=O)(O[Na])O[Na]

>  <Measured or Estimated Log10(mmol/L)>
1.508454814

$$$$

CDXL12

  3  2  0  0  0  0  0  0  0  0999 V2000
    0.0000    0.2062    0.0000 Pb  0  0  0  0  0  0  0  2  0  0  0  0
   -0.7145   -0.2062    0.0000 Cl  0  0  0  0  0  0  0  2  0  0  0  0
    0.7145   -0.2062    0.0000 Cl  0  0  0  0  0  0  0  2  0  0  0  0
  1  2  1  0        0
  1  3  1  0        0
M  END
>  <CAS RN>
7758954

>  <SMILES>
[Pb](Cl)Cl

>  <Measured or Estimated Log10(mmol/L)>
-1.346172206

$$$$

CDXL12

  6  6  0  0  0  0  0  0  0  0999 V2000
    0.0141    0.0141    0.0000 S   0  0  0  0  0  0  0  2  0  0  0  0
    0.8109    0.2276    0.0000 O   0  0  0  0  0  0  0  2  0  0  0  0
    0.2276    0.8109    0.0000 O   0  0  0  0  0  0  0  2  0  0  0  0
    0.0141   -0.8109    0.0000 O   0  0  0  0  0  0  0  2  0  0  0  0
   -0.8109   -0.8109    0.0000 Cu  0  0  0  0  0  0  0  2  0  0  0  0
   -0.8109    0.0141    0.0000 O   0  0  0  0  0  0  0  2  0  0  0  0
  1  2  2  0        0
  1  3  2  0        0
  1  4  1  0        0
  4  5  1  0        0
  5  6  1  0        0
  1  6  1  0        0
M  END
>  <CAS RN>
7758987

>  <SMILES>
S1(=O)(=O)O[Cu]O1

>  <Measured or Estimated Log10(mmol/L)>
-3.292174948

$$$$

CDXL12

  5  4  0  0  0  0  0  0  0  0999 V2000
    1.0717   -0.2062    0.0000 Ag  0  0  0  0  0  0  0  2  0  0  0  0
    0.3572   -0.6187    0.0000 O   0  0  0  0  0  0  0  2  0  0  0  0
   -0.3572   -0.2062    0.0000 N   0  0  0  0  0  0  0  2  0  0  0  0
   -0.3572    0.6187    0.0000 O   0  0  0  0  0  0  0  2  0  0  0  0
   -1.0717   -0.6187    0.0000 O   0  0  0  0  0  0  0  2  0  0  0  0
  1  2  1  0        0
  2  3  1  0        0
  3  4  2  0        0
  3  5  2  0        0
M  END
>  <CAS RN>
7761888

>  <SMILES>
[Ag]ON(=O)=O

>  <Measured or Estimated Log10(mmol/L)>
-4.651029587

$$$$

CDXL12

  7  6  0  0  0  0  0  0  0  0999 V2000
    0.4125   -0.7145    0.0000 S   0  0  0  0  0  0  0  2  0  0  0  0
    0.0000    0.0000    0.0000 S   0  0  0  0  0  0  0  2  0  0  0  0
   -0.4125    0.7145    0.0000 O   0  0  0  0  0  0  0  2  0  0  0  0
   -0.7145   -0.4125    0.0000 O   0  0  0  0  0  0  0  2  0  0  0  0
   -1.4289   -0.0000    0.0000 Na  0  0  0  0  0  0  0  2  0  0  0  0
    0.7145    0.4125    0.0000 O   0  0  0  0  0  0  0  2  0  0  0  0
    1.4289   -0.0000    0.0000 Na  0  0  0  0  0  0  0  2  0  0  0  0
  1  2  2  0        0
  2  3  2  0        0
  2  4  1  0        0
  4  5  1  0        0
  2  6  1  0        0
  6  7  1  0        0
M  END
>  <CAS RN>
7772987

>  <SMILES>
S=S(=O)(O[Na])O[Na]

>  <Measured or Estimated Log10(mmol/L)>
1.0041281

$$$$

CDXL12

  3  2  0  0  0  0  0  0  0  0999 V2000
   -0.7145   -0.2062    0.0000 Cl  0  0  0  0  0  0  0  2  0  0  0  0
    0.0000    0.2062    0.0000 Sn  0  0  0  0  0  0  0  2  0  0  0  0
    0.7145   -0.2062    0.0000 Cl  0  0  0  0  0  0  0  2  0  0  0  0
  1  2  1  0        0
  2  3  1  0        0
M  END
>  <CAS RN>
7772998

>  <SMILES>
Cl[Sn]Cl

>  <Measured or Estimated Log10(mmol/L)>
-0.987794559

$$$$

CDXL12

  3  2  0  0  0  0  0  0  0  0999 V2000
    0.0000    0.2062    0.0000 Mn  0  0  0  0  0  0  0  2  0  0  0  0
   -0.7145   -0.2062    0.0000 Cl  0  0  0  0  0  0  0  2  0  0  0  0
    0.7145   -0.2062    0.0000 Cl  0  0  0  0  0  0  0  2  0  0  0  0
  1  2  1  0        0
  1  3  1  0        0
M  END
>  <CAS RN>
7773015

>  <SMILES>
[Mn](Cl)Cl

>  <Measured or Estimated Log10(mmol/L)>
-0.62836151

$$$$

CDXL12

  5  4  0  0  0  0  0  0  0  0999 V2000
   -1.0717   -0.6187    0.0000 O   0  0  0  0  0  0  0  2  0  0  0  0
   -0.3572   -0.2062    0.0000 Cl  0  0  0  0  0  0  0  2  0  0  0  0
   -0.3572    0.6188    0.0000 O   0  0  0  0  0  0  0  2  0  0  0  0
    0.3572   -0.6188    0.0000 O   0  0  0  0  0  0  0  2  0  0  0  0
    1.0717   -0.2062    0.0000 Na  0  0  0  0  0  0  0  2  0  0  0  0
  1  2  2  0        0
  2  3  2  0        0
  2  4  1  0        0
  4  5  1  0        0
M  END
>  <CAS RN>
7775099

>  <SMILES>
O=Cl(=O)O[Na]

>  <Measured or Estimated Log10(mmol/L)>
1.472857

$$$$

CDXL12

  7  6  0  0  0  0  0  0  0  0999 V2000
    0.4125   -0.7145    0.0000 O   0  0  0  0  0  0  0  2  0  0  0  0
    0.0000    0.0000    0.0000 Cr  0  0  0  0  0  0  0  2  0  0  0  0
   -0.4125    0.7145    0.0000 O   0  0  0  0  0  0  0  2  0  0  0  0
   -0.7145   -0.4125    0.0000 O   0  0  0  0  0  0  0  2  0  0  0  0
   -1.4289   -0.0000    0.0000 Na  0  0  0  0  0  0  0  2  0  0  0  0
    0.7145    0.4125    0.0000 O   0  0  0  0  0  0  0  2  0  0  0  0
    1.4289   -0.0000    0.0000 Na  0  0  0  0  0  0  0  2  0  0  0  0
  1  2  2  0        0
  2  3  2  0        0
  2  4  1  0        0
  4  5  1  0        0
  2  6  1  0        0
  6  7  1  0        0
M  END
>  <CAS RN>
7775113

>  <SMILES>
O=[Cr](=O)(O[Na])O[Na]

>  <Measured or Estimated Log10(mmol/L)>
-3.267219304

$$$$

CDXL12

 12 11  0  0  0  0  0  0  0  0999 V2000
   -2.5006   -0.2062    0.0000 Na  0  0  0  0  0  0  0  2  0  0  0  0
   -1.7862   -0.6188    0.0000 O   0  0  0  0  0  0  0  2  0  0  0  0
   -1.0717   -0.2062    0.0000 S   0  0  0  0  0  0  0  2  0  0  0  0
   -1.4842    0.5082    0.0000 O   0  0  0  0  0  0  0  2  0  0  0  0
   -0.6592   -0.9207    0.0000 O   0  0  0  0  0  0  0  2  0  0  0  0
   -0.3572    0.2062    0.0000 O   0  0  0  0  0  0  0  2  0  0  0  0
    0.3572   -0.2062    0.0000 O   0  0  0  0  0  0  0  2  0  0  0  0
    1.0717    0.2062    0.0000 S   0  0  0  0  0  0  0  2  0  0  0  0
    1.4842   -0.5082    0.0000 O   0  0  0  0  0  0  0  2  0  0  0  0
    0.6592    0.9207    0.0000 O   0  0  0  0  0  0  0  2  0  0  0  0
    1.7862    0.6188    0.0000 O   0  0  0  0  0  0  0  2  0  0  0  0
    2.5006    0.2062    0.0000 Na  0  0  0  0  0  0  0  2  0  0  0  0
  1  2  1  0        0
  2  3  1  0        0
  3  4  2  0        0
  3  5  2  0        0
  3  6  1  0        0
  6  7  1  0        0
  7  8  1  0        0
  8  9  2  0        0
  8 10  2  0        0
  8 11  1  0        0
 11 12  1  0        0
M  END
>  <CAS RN>
7775271

>  <SMILES>
[Na]OS(=O)(=O)OOS(=O)(=O)O[Na]

>  <Measured or Estimated Log10(mmol/L)>
-0.566526877

$$$$

CDXL12

  5  4  0  0  0  0  0  0  0  0999 V2000
    0.0000    0.8250    0.0000 O   0  0  0  0  0  0  0  2  0  0  0  0
    0.0000   -0.0000    0.0000 As  0  0  0  0  0  0  0  2  0  0  0  0
   -0.8250   -0.0000    0.0000 O   0  0  0  0  0  0  0  2  0  0  0  0
    0.0000   -0.8250    0.0000 O   0  0  0  0  0  0  0  2  0  0  0  0
    0.8250   -0.0000    0.0000 O   0  0  0  0  0  0  0  2  0  0  0  0
  1  2  2  0        0
  2  3  1  0        0
  2  4  1  0        0
  2  5  1  0        0
M  END
>  <CAS RN>
7778394

>  <SMILES>
O=[As](O)(O)O

>  <Measured or Estimated Log10(mmol/L)>
-1.332566985

$$$$

CDXL12

  7  6  0  0  0  0  0  0  0  0999 V2000
    0.0000    0.8250    0.0000 O   0  0  0  0  0  0  0  2  0  0  0  0
    0.0000   -0.0000    0.0000 As  0  0  0  0  0  0  0  2  0  0  0  0
    0.0000   -0.8250    0.0000 O   0  0  0  0  0  0  0  2  0  0  0  0
    0.7145   -0.4125    0.0000 O   0  0  0  0  0  0  0  2  0  0  0  0
    1.4289    0.0000    0.0000 Na  0  0  0  0  0  0  0  2  0  0  0  0
   -0.7145   -0.4125    0.0000 O   0  0  0  0  0  0  0  2  0  0  0  0
   -1.4289   -0.0000    0.0000 Na  0  0  0  0  0  0  0  2  0  0  0  0
  1  2  2  0        0
  2  3  1  0        0
  2  4  1  0        0
  4  5  1  0        0
  2  6  1  0        0
  6  7  1  0        0
M  END
>  <CAS RN>
7778430

>  <SMILES>
O=[As](O)(O[Na])O[Na]

>  <Measured or Estimated Log10(mmol/L)>
-1.400061687

$$$$

CDXL12

 11 10  0  0  0  0  0  0  0  0999 V2000
    2.1434   -0.0000    0.0000 K   0  0  0  0  0  0  0  2  0  0  0  0
    1.4289    0.4125    0.0000 O   0  0  0  0  0  0  0  2  0  0  0  0
    0.7145    0.0000    0.0000 Cr  0  0  0  0  0  0  0  2  0  0  0  0
    1.1270   -0.7145    0.0000 O   0  0  0  0  0  0  0  2  0  0  0  0
    0.3020    0.7145    0.0000 O   0  0  0  0  0  0  0  2  0  0  0  0
    0.0000   -0.4125    0.0000 O   0  0  0  0  0  0  0  2  0  0  0  0
   -0.7145   -0.0000    0.0000 Cr  0  0  0  0  0  0  0  2  0  0  0  0
   -0.3020    0.7145    0.0000 O   0  0  0  0  0  0  0  2  0  0  0  0
   -1.1270   -0.7145    0.0000 O   0  0  0  0  0  0  0  2  0  0  0  0
   -1.4289    0.4125    0.0000 O   0  0  0  0  0  0  0  2  0  0  0  0
   -2.1434   -0.0000    0.0000 K   0  0  0  0  0  0  0  2  0  0  0  0
  1  2  1  0        0
  2  3  1  0        0
  3  4  2  0        0
  3  5  2  0        0
  3  6  1  0        0
  6  7  1  0        0
  7  8  2  0        0
  7  9  2  0        0
  7 10  1  0        0
 10 11  1  0        0
M  END
>  <CAS RN>
7778509

>  <SMILES>
[K]O[Cr](=O)(=O)O[Cr](=O)(=O)O[K]

>  <Measured or Estimated Log10(mmol/L)>
-2.354671268

$$$$

CDXL12

  6  5  0  0  0  0  0  0  0  0999 V2000
    1.0717   -0.0000    0.0000 K   0  0  0  0  0  0  0  2  0  0  0  0
    0.3572   -0.4125    0.0000 O   0  0  0  0  0  0  0  2  0  0  0  0
   -0.3572    0.0000    0.0000 Cl  0  0  0  0  0  0  0  2  0  0  0  0
   -1.0717    0.4125    0.0000 O   0  0  0  0  0  0  0  2  0  0  0  0
    0.0553    0.7145    0.0000 O   0  0  0  0  0  0  0  2  0  0  0  0
   -0.7697   -0.7145    0.0000 O   0  0  0  0  0  0  0  2  0  0  0  0
  1  2  1  0        0
  2  3  1  0        0
  3  4  2  0        0
  3  5  2  0        0
  3  6  2  0        0
M  END
>  <CAS RN>
7778747

>  <SMILES>
[K]OCl(=O)(=O)=O

>  <Measured or Estimated Log10(mmol/L)>
0.566723618

$$$$

CDXL12

  7  6  0  0  0  0  0  0  0  0999 V2000
   -1.4289   -0.0000    0.0000 K   0  0  0  0  0  0  0  2  0  0  0  0
   -0.7145   -0.4125    0.0000 O   0  0  0  0  0  0  0  2  0  0  0  0
    0.0000    0.0000    0.0000 S   0  0  0  0  0  0  0  2  0  0  0  0
    0.4125   -0.7145    0.0000 O   0  0  0  0  0  0  0  2  0  0  0  0
   -0.4125    0.7145    0.0000 O   0  0  0  0  0  0  0  2  0  0  0  0
    0.7145    0.4125    0.0000 O   0  0  0  0  0  0  0  2  0  0  0  0
    1.4289   -0.0000    0.0000 K   0  0  0  0  0  0  0  2  0  0  0  0
  1  2  1  0        0
  2  3  1  0        0
  3  4  2  0        0
  3  5  2  0        0
  3  6  1  0        0
  6  7  1  0        0
M  END
>  <CAS RN>
7778805

>  <SMILES>
[K]OS(=O)(=O)O[K]

>  <Measured or Estimated Log10(mmol/L)>
0.616144756

$$$$

CDXL12

  9  8  0  0  0  0  0  0  0  0999 V2000
    1.4289    0.6187    0.0000 O   0  0  0  0  0  0  0  2  0  0  0  0
    1.4289   -0.2062    0.0000 N   0  0  0  0  0  0  0  2  0  0  0  0
    2.1434   -0.6188    0.0000 O   0  0  0  0  0  0  0  2  0  0  0  0
    0.7145   -0.6188    0.0000 O   0  0  0  0  0  0  0  2  0  0  0  0
   -0.0000   -0.2062    0.0000 Zn  0  0  0  0  0  0  0  2  0  0  0  0
   -0.7145   -0.6188    0.0000 O   0  0  0  0  0  0  0  2  0  0  0  0
   -1.4289   -0.2062    0.0000 N   0  0  0  0  0  0  0  2  0  0  0  0
   -2.1434   -0.6187    0.0000 O   0  0  0  0  0  0  0  2  0  0  0  0
   -1.4289    0.6188    0.0000 O   0  0  0  0  0  0  0  2  0  0  0  0
  1  2  2  0        0
  2  3  2  0        0
  2  4  1  0        0
  4  5  1  0        0
  5  6  1  0        0
  6  7  1  0        0
  7  8  2  0        0
  7  9  2  0        0
M  END
>  <CAS RN>
7779886

>  <SMILES>
O=N(=O)O[Zn]ON(=O)=O

>  <Measured or Estimated Log10(mmol/L)>
-2.511694892

$$$$

CDXL12

  1  0  0  0  0  0  0  0  0  0999 V2000
    0.0000    0.0000    0.0000 Se  0  6  0  0  0  0  0  2  0  0  0  0
M  CHG  1   1  -2
M  END
>  <CAS RN>
7782492

>  <SMILES>
[Se-2]

>  <Measured or Estimated Log10(mmol/L)>
-2.263938684

$$$$

CDXL12

  2  1  0  0  0  0  0  0  0  0999 V2000
   -0.4125    0.0000    0.0000 Cl  0  0  0  0  0  0  0  2  0  0  0  0
    0.4125    0.0000    0.0000 Cl  0  0  0  0  0  0  0  2  0  0  0  0
  1  2  1  0        0
M  END
>  <CAS RN>
7782505

>  <SMILES>
ClCl

>  <Measured or Estimated Log10(mmol/L)>
-2.770778519

$$$$

CDXL12

  6  6  0  0  0  0  0  0  0  0999 V2000
   -0.8109   -0.8109    0.0000 Fe  0  0  0  0  0  0  0  2  0  0  0  0
   -0.8109    0.0141    0.0000 O   0  0  0  0  0  0  0  2  0  0  0  0
    0.0141    0.0141    0.0000 S   0  0  0  0  0  0  0  2  0  0  0  0
    0.8109    0.2276    0.0000 O   0  0  0  0  0  0  0  2  0  0  0  0
    0.2276    0.8109    0.0000 O   0  0  0  0  0  0  0  2  0  0  0  0
    0.0141   -0.8109    0.0000 O   0  0  0  0  0  0  0  2  0  0  0  0
  1  2  1  0        0
  2  3  1  0        0
  3  4  2  0        0
  3  5  2  0        0
  3  6  1  0        0
  1  6  1  0        0
M  END
>  <CAS RN>
7782630

>  <SMILES>
[Fe]1OS(=O)(=O)O1

>  <Measured or Estimated Log10(mmol/L)>
0.017079306

$$$$

CDXL12

  4  3  0  0  0  0  0  0  0  0999 V2000
    0.0000    0.6188    0.0000 O   0  0  0  0  0  0  0  2  0  0  0  0
    0.0000   -0.2062    0.0000 Se  0  0  0  0  0  0  0  2  0  0  0  0
   -0.7145   -0.6187    0.0000 O   0  0  0  0  0  0  0  2  0  0  0  0
    0.7145   -0.6188    0.0000 O   0  0  0  0  0  0  0  2  0  0  0  0
  1  2  2  0        0
  2  3  1  0        0
  2  4  1  0        0
M  END
>  <CAS RN>
7783008

>  <SMILES>
O=[Se](O)O

>  <Measured or Estimated Log10(mmol/L)>
-2.029511755

$$$$

CDXL12

  6  6  0  0  0  0  0  0  0  0999 V2000
   -0.8109    0.0141    0.0000 O   0  0  0  0  0  0  0  2  0  0  0  0
    0.0141    0.0141    0.0000 S   0  0  0  0  0  0  0  2  0  0  0  0
    0.8109    0.2276    0.0000 O   0  0  0  0  0  0  0  2  0  0  0  0
    0.2276    0.8109    0.0000 O   0  0  0  0  0  0  0  2  0  0  0  0
    0.0141   -0.8109    0.0000 O   0  0  0  0  0  0  0  2  0  0  0  0
   -0.8109   -0.8109    0.0000 Mn  0  0  0  0  0  0  0  2  0  0  0  0
  1  2  1  0        0
  2  3  2  0        0
  2  4  2  0        0
  2  5  1  0        0
  5  6  1  0        0
  1  6  1  0        0
M  END
>  <CAS RN>
7785877

>  <SMILES>
O1S(=O)(=O)O[Mn]1

>  <Measured or Estimated Log10(mmol/L)>
-0.888936584

$$$$

CDXL12

  3  2  0  0  0  0  0  0  0  0999 V2000
   -0.7145   -0.2062    0.0000 Cl  0  0  0  0  0  0  0  2  0  0  0  0
    0.0000    0.2062    0.0000 Mg  0  0  0  0  0  0  0  2  0  0  0  0
    0.7145   -0.2062    0.0000 Cl  0  0  0  0  0  0  0  2  0  0  0  0
  1  2  1  0        0
  2  3  1  0        0
M  END
>  <CAS RN>
7786303

>  <SMILES>
Cl[Mg]Cl

>  <Measured or Estimated Log10(mmol/L)>
1.145132586

$$$$

CDXL12

  6  6  0  0  0  0  0  0  0  0999 V2000
   -0.8109    0.0141    0.0000 O   0  0  0  0  0  0  0  2  0  0  0  0
    0.0141    0.0141    0.0000 S   0  0  0  0  0  0  0  2  0  0  0  0
    0.8109    0.2276    0.0000 O   0  0  0  0  0  0  0  2  0  0  0  0
    0.2276    0.8109    0.0000 O   0  0  0  0  0  0  0  2  0  0  0  0
    0.0141   -0.8109    0.0000 O   0  0  0  0  0  0  0  2  0  0  0  0
   -0.8109   -0.8109    0.0000 Ni  0  0  0  0  0  0  0  2  0  0  0  0
  1  2  1  0        0
  2  3  2  0        0
  2  4  2  0        0
  2  5  1  0        0
  5  6  1  0        0
  1  6  1  0        0
M  END
>  <CAS RN>
7786814

>  <SMILES>
O1S(=O)(=O)O[Ni]1

>  <Measured or Estimated Log10(mmol/L)>
-1.57902662

$$$$

CDXL12

  3  2  0  0  0  0  0  0  0  0999 V2000
    0.0000    0.2062    0.0000 Be  0  0  0  0  0  0  0  2  0  0  0  0
   -0.7145   -0.2062    0.0000 Cl  0  0  0  0  0  0  0  2  0  0  0  0
    0.7145   -0.2062    0.0000 Cl  0  0  0  0  0  0  0  2  0  0  0  0
  1  2  1  0        0
  1  3  1  0        0
M  END
>  <CAS RN>
7787475

>  <SMILES>
[Be](Cl)Cl

>  <Measured or Estimated Log10(mmol/L)>
-1.902644607

$$$$

CDXL12

 15 14  0  0  0  0  0  0  0  0999 V2000
   -0.4097    0.7105    0.0000 O   0  0  0  0  0  0  0  2  0  0  0  0
    0.0028   -0.0039    0.0000 Cr  0  0  0  0  0  0  0  2  0  0  0  0
    0.4153   -0.7184    0.0000 O   0  0  0  0  0  0  0  2  0  0  0  0
   -0.7117   -0.4164    0.0000 O   0  0  0  0  0  0  0  2  0  0  0  0
   -1.4261   -0.0039    0.0000 N   0  0  0  0  0  0  0  2  0  0  0  0
   -0.8130    0.5481    0.0000 H   0  0  0  0  0  0  0  2  0  0  0  0
   -1.7617    0.7497    0.0000 H   0  0  0  0  0  0  0  2  0  0  0  0
   -2.2466   -0.0902    0.0000 H   0  0  0  0  0  0  0  2  0  0  0  0
   -1.5976   -0.8109    0.0000 H   0  0  0  0  0  0  0  2  0  0  0  0
    0.7173    0.4086    0.0000 O   0  0  0  0  0  0  0  2  0  0  0  0
    1.4318   -0.0039    0.0000 N   0  0  0  0  0  0  0  2  0  0  0  0
    0.8484   -0.5873    0.0000 H   0  0  0  0  0  0  0  2  0  0  0  0
    1.8063   -0.7390    0.0000 H   0  0  0  0  0  0  0  2  0  0  0  0
    2.2466    0.1251    0.0000 H   0  0  0  0  0  0  0  2  0  0  0  0
    1.5608    0.8109    0.0000 H   0  0  0  0  0  0  0  2  0  0  0  0
  1  2  2  0        0
  2  3  2  0        0
  2  4  1  0        0
  4  5  1  0        0
  5  6  1  0        0
  5  7  1  0        0
  5  8  1  0        0
  5  9  1  0        0
  2 10  1  0        0
 10 11  1  0        0
 11 12  1  0        0
 11 13  1  0        0
 11 14  1  0        0
 11 15  1  0        0
M  END
>  <CAS RN>
7788989

>  <SMILES>
O=[Cr](=O)(ON([H])([H])([H])[H])ON([H])([H])([H])[H]

>  <Measured or Estimated Log10(mmol/L)>
-2.620942162

$$$$

CDXL12

  7  6  0  0  0  0  0  0  0  0999 V2000
   -1.4289   -0.0000    0.0000 K   0  0  0  0  0  0  0  2  0  0  0  0
   -0.7145   -0.4125    0.0000 O   0  0  0  0  0  0  0  2  0  0  0  0
    0.0000    0.0000    0.0000 Cr  0  0  0  0  0  0  0  2  0  0  0  0
    0.4125   -0.7145    0.0000 O   0  0  0  0  0  0  0  2  0  0  0  0
   -0.4125    0.7145    0.0000 O   0  0  0  0  0  0  0  2  0  0  0  0
    0.7145    0.4125    0.0000 O   0  0  0  0  0  0  0  2  0  0  0  0
    1.4289   -0.0000    0.0000 K   0  0  0  0  0  0  0  2  0  0  0  0
  1  2  1  0        0
  2  3  1  0        0
  3  4  2  0        0
  3  5  2  0        0
  3  6  1  0        0
  6  7  1  0        0
M  END
>  <CAS RN>
7789006

>  <SMILES>
[K]O[Cr](=O)(=O)O[K]

>  <Measured or Estimated Log10(mmol/L)>
-2.547859699

$$$$

CDXL12

  3  2  0  0  0  0  0  0  0  0999 V2000
   -0.7145   -0.2062    0.0000 Cl  0  0  0  0  0  0  0  2  0  0  0  0
    0.0000    0.2062    0.0000 Cd  0  0  0  0  0  0  0  2  0  0  0  0
    0.7145   -0.2062    0.0000 Cl  0  0  0  0  0  0  0  2  0  0  0  0
  1  2  1  0        0
  2  3  1  0        0
M  END
>  <CAS RN>
7790785

>  <SMILES>
Cl[Cd]Cl

>  <Measured or Estimated Log10(mmol/L)>
-2.572980601

$$$$

CDXL12

  6  6  0  0  0  0  0  0  0  0999 V2000
   -0.8109    0.0141    0.0000 O   0  0  0  0  0  0  0  2  0  0  0  0
    0.0141    0.0141    0.0000 S   0  0  0  0  0  0  0  2  0  0  0  0
    0.8109    0.2276    0.0000 O   0  0  0  0  0  0  0  2  0  0  0  0
    0.2276    0.8109    0.0000 O   0  0  0  0  0  0  0  2  0  0  0  0
    0.0141   -0.8109    0.0000 O   0  0  0  0  0  0  0  2  0  0  0  0
   -0.8109   -0.8109    0.0000 Cd  0  0  0  0  0  0  0  2  0  0  0  0
  1  2  1  0        0
  2  3  2  0        0
  2  4  2  0        0
  2  5  1  0        0
  5  6  1  0        0
  1  6  1  0        0
M  END
>  <CAS RN>
7790843

>  <SMILES>
O1S(=O)(=O)O[Cd]1

>  <Measured or Estimated Log10(mmol/L)>
-2.8718647

$$$$

CDXL12

 18 19  0  0  0  0  0  0  0  0999 V2000
   -0.3918   -0.0000    0.0000 C   0  0  0  0  0  0  0  2  0  0  0  0
   -0.8650    0.6758    0.0000 Cl  0  0  0  0  0  0  0  2  0  0  0  0
   -1.1670    0.2822    0.0000 Cl  0  0  0  0  0  0  0  2  0  0  0  0
   -0.0553    0.8250    0.0000 C   0  0  0  0  0  0  0  2  0  0  0  0
    0.6592    0.4125    0.0000 C   0  0  0  0  0  0  0  2  0  0  0  0
    1.4842    0.4125    0.0000 Cl  0  0  0  0  0  0  0  2  0  0  0  0
    1.0717    1.1270    0.0000 Cl  0  0  0  0  0  0  0  2  0  0  0  0
    0.6592   -0.4125    0.0000 C   0  0  0  0  0  0  0  2  0  0  0  0
   -0.0553   -0.8250    0.0000 C   0  0  0  0  0  0  0  2  0  0  0  0
   -0.0553   -1.6500    0.0000 Cl  0  0  0  0  0  0  0  2  0  0  0  0
   -0.7697   -0.4125    0.0000 C   0  0  0  0  0  0  0  2  0  0  0  0
   -1.3531   -0.9959    0.0000 C   0  0  0  0  0  0  0  2  0  0  0  0
   -1.4842   -0.0000    0.0000 C   0  0  0  0  0  0  0  2  0  0  0  0
   -0.7697    0.4125    0.0000 C   0  0  0  0  0  0  0  2  0  0  0  0
   -1.4842    0.8250    0.0000 C   0  0  0  0  0  0  0  2  0  0  0  0
    1.0717   -1.1270    0.0000 Cl  0  0  0  0  0  0  0  2  0  0  0  0
    1.4842   -0.4125    0.0000 Cl  0  0  0  0  0  0  0  2  0  0  0  0
   -0.0553    1.6500    0.0000 Cl  0  0  0  0  0  0  0  2  0  0  0  0
  1  2  1  0        0
  1  3  1  0        0
  1  4  1  0        0
  4  5  1  0        0
  5  6  1  0        0
  5  7  1  0        0
  5  8  1  0        0
  8  9  1  0        0
  1  9  1  0        0
  9 10  1  0        0
  9 11  1  0        0
 11 12  1  0        0
 11 13  1  0        0
 11 14  1  0        0
  4 14  1  0        0
 14 15  2  0        0
  8 16  1  0        0
  8 17  1  0        0
  4 18  1  0        0
M  END
>  <CAS RN>
8001352

>  <SMILES>
C1(Cl)(Cl)C2(C(Cl)(Cl)C(C1(Cl)C(C)(C)C2=C)(Cl)Cl)Cl

>  <Measured or Estimated Log10(mmol/L)>
-2.822138285

$$$$

CDXL12

 26 26  0  0  0  0  0  0  0  0999 V2000
    6.4215   -0.1777    0.0000 C   0  0  0  0  0  0  0  2  0  0  0  0
    5.6010   -0.2640    0.0000 C   0  0  0  0  0  0  0  2  0  0  0  0
    5.1161    0.4035    0.0000 C   0  0  0  0  0  0  0  2  0  0  0  0
    5.4516    1.1572    0.0000 C   0  0  0  0  0  0  0  2  0  0  0  0
    6.2721    1.2434    0.0000 C   0  0  0  0  0  0  0  2  0  0  0  0
    6.7570    0.5760    0.0000 C   0  0  0  0  0  0  0  2  0  0  0  0
    4.2956    0.3172    0.0000 C   0  0  0  0  0  0  0  2  0  0  0  0
    3.9600   -0.4364    0.0000 N   0  0  0  0  0  0  0  2  0  0  0  0
    4.7805   -0.5227    0.0000 C   0  0  0  0  0  0  0  2  0  0  0  0
    3.3469    0.1156    0.0000 C   0  0  0  0  0  0  0  2  0  0  0  0
    3.2456   -0.8489    0.0000 C   0  0  0  0  0  0  0  2  0  0  0  0
    2.5311   -0.4364    0.0000 C   0  0  0  0  0  0  0  2  0  0  0  0
    1.8166   -0.8489    0.0000 C   0  0  0  0  0  0  0  2  0  0  0  0
    1.1021   -0.4364    0.0000 C   0  0  0  0  0  0  0  2  0  0  0  0
    0.3877   -0.8489    0.0000 C   0  0  0  0  0  0  0  2  0  0  0  0
   -0.3268   -0.4364    0.0000 C   0  0  0  0  0  0  0  2  0  0  0  0
   -1.0413   -0.8489    0.0000 C   0  0  0  0  0  0  0  2  0  0  0  0
   -1.7557   -0.4364    0.0000 C   0  0  0  0  0  0  0  2  0  0  0  0
   -2.4702   -0.8489    0.0000 C   0  0  0  0  0  0  0  2  0  0  0  0
   -3.1847   -0.4364    0.0000 C   0  0  0  0  0  0  0  2  0  0  0  0
   -3.8991   -0.8489    0.0000 C   0  0  0  0  0  0  0  2  0  0  0  0
   -4.6136   -0.4364    0.0000 C   0  0  0  0  0  0  0  2  0  0  0  0
   -5.3281   -0.8489    0.0000 C   0  0  0  0  0  0  0  2  0  0  0  0
   -6.0426   -0.4364    0.0000 C   0  0  0  0  0  0  0  2  0  0  0  0
   -6.7570   -0.8489    0.0000 C   0  0  0  0  0  0  0  2  0  0  0  0
    4.1316   -1.2434    0.0000 Cl  0  0  0  0  0  0  0  2  0  0  0  0
  1  2  4  0        0
  2  3  4  0        0
  3  4  4  0        0
  4  5  4  0        0
  5  6  4  0        0
  1  6  4  0        0
  3  7  1  0        0
  7  8  1  0        0
  8  9  1  0        0
  8 10  1  0        0
  8 11  1  0        0
 11 12  1  0        0
 12 13  1  0        0
 13 14  1  0        0
 14 15  1  0        0
 15 16  1  0        0
 16 17  1  0        0
 17 18  1  0        0
 18 19  1  0        0
 19 20  1  0        0
 20 21  1  0        0
 21 22  1  0        0
 22 23  1  0        0
 23 24  1  0        0
 24 25  1  0        0
  8 26  1  0        0
M  END
>  <CAS RN>
8001545

>  <SMILES>
c1cc(ccc1)CN(C)(C)(CCCCCCCCCCCCCCC)Cl

>  <Measured or Estimated Log10(mmol/L)>
-3.577828385

$$$$

CDXL12

 29 31  0  0  0  0  0  0  0  0999 V2000
   -0.0000   -0.6188    0.0000 C   0  0  0  0  0  0  0  2  0  0  0  0
   -0.0000    0.2062    0.0000 C   0  0  0  0  0  0  0  2  0  0  0  0
   -0.7145    0.6187    0.0000 C   0  0  0  0  0  0  0  2  0  0  0  0
   -0.7145    1.4438    0.0000 C   0  0  0  0  0  0  0  2  0  0  0  0
   -0.0000    1.8563    0.0000 C   0  0  0  0  0  0  0  2  0  0  0  0
    0.7145    1.4438    0.0000 C   0  0  0  0  0  0  0  2  0  0  0  0
    0.7145    0.6188    0.0000 C   0  0  0  0  0  0  0  2  0  0  0  0
   -0.0000    2.6812    0.0000 N   0  0  0  0  0  0  0  2  0  0  0  0
   -0.7145    3.0938    0.0000 C   0  0  0  0  0  0  0  2  0  0  0  0
    0.7145    3.0938    0.0000 C   0  0  0  0  0  0  0  2  0  0  0  0
    0.7145   -1.0313    0.0000 C   0  0  0  0  0  0  0  2  0  0  0  0
    1.4289   -0.6188    0.0000 C   0  0  0  0  0  0  0  2  0  0  0  0
    2.1434   -1.0313    0.0000 C   0  0  0  0  0  0  0  2  0  0  0  0
    2.1434   -1.8563    0.0000 C   0  0  0  0  0  0  0  2  0  0  0  0
    1.4289   -2.2687    0.0000 C   0  0  0  0  0  0  0  2  0  0  0  0
    0.7145   -1.8563    0.0000 C   0  0  0  0  0  0  0  2  0  0  0  0
    2.8579   -2.2687    0.0000 N   0  0  0  0  0  0  0  2  0  0  0  0
    2.8579   -3.0938    0.0000 C   0  0  0  0  0  0  0  2  0  0  0  0
    3.5724   -1.8563    0.0000 C   0  0  0  0  0  0  0  2  0  0  0  0
   -0.7145   -1.0313    0.0000 C   0  0  0  0  0  0  0  2  0  0  0  0
   -0.7145   -1.8563    0.0000 C   0  0  0  0  0  0  0  2  0  0  0  0
   -1.4289   -2.2687    0.0000 C   0  0  0  0  0  0  0  2  0  0  0  0
   -2.1434   -1.8563    0.0000 C   0  0  0  0  0  0  0  2  0  0  0  0
   -2.1434   -1.0313    0.0000 C   0  0  0  0  0  0  0  2  0  0  0  0
   -1.4289   -0.6188    0.0000 C   0  0  0  0  0  0  0  2  0  0  0  0
   -2.8579   -2.2687    0.0000 N   0  0  0  0  0  0  0  2  0  0  0  0
   -3.5724   -2.6812    0.0000 H   0  0  0  0  0  0  0  2  0  0  0  0
   -2.8579   -3.0937    0.0000 H   0  0  0  0  0  0  0  2  0  0  0  0
   -3.5724   -1.8563    0.0000 Cl  0  0  0  0  0  0  0  2  0  0  0  0
  1  2  1  0        0
  2  3  4  0        0
  3  4  4  0        0
  4  5  4  0        0
  5  6  4  0        0
  6  7  4  0        0
  2  7  4  0        0
  5  8  1  0        0
  8  9  1  0        0
  8 10  1  0        0
  1 11  1  0        0
 11 12  4  0        0
 12 13  4  0        0
 13 14  4  0        0
 14 15  4  0        0
 15 16  4  0        0
 11 16  4  0        0
 14 17  1  0        0
 17 18  1  0        0
 17 19  1  0        0
  1 20  2  0        0
 20 21  2  0        0
 21 22  1  0        0
 22 23  2  0        0
 23 24  1  0        0
 24 25  2  0        0
 20 25  1  0        0
 23 26  2  0        0
 26 27  1  0        0
 26 28  1  0        0
 26 29  1  0        0
M  END
>  <CAS RN>
8004873

>  <SMILES>
C(c1ccc(cc1)N(C)C)(c1ccc(cc1)N(C)C)=C\1=CC=C(\C=C1)=N([H])([H])Cl

>  <Measured or Estimated Log10(mmol/L)>
0.043539987

$$$$

CDXL12

 17 19  0  0  0  0  0  0  0  0999 V2000
    0.0000   -1.2375    0.0000 C   0  0  0  0  0  0  0  2  0  0  0  0
    0.0000   -0.4125    0.0000 N   0  3  0  0  0  0  0  2  0  0  0  0
    0.7145    0.0000    0.0000 C   0  0  0  0  0  0  0  2  0  0  0  0
    1.4289   -0.4125    0.0000 C   0  0  0  0  0  0  0  2  0  0  0  0
    2.1434    0.0000    0.0000 C   0  0  0  0  0  0  0  2  0  0  0  0
    2.1434    0.8250    0.0000 C   0  0  0  0  0  0  0  2  0  0  0  0
    1.4289    1.2375    0.0000 C   0  0  0  0  0  0  0  2  0  0  0  0
    0.7145    0.8250    0.0000 C   0  0  0  0  0  0  0  2  0  0  0  0
    0.0000    1.2375    0.0000 C   0  0  0  0  0  0  0  2  0  0  0  0
   -0.7145    0.8250    0.0000 C   0  0  0  0  0  0  0  2  0  0  0  0
   -0.7145    0.0000    0.0000 C   0  0  0  0  0  0  0  2  0  0  0  0
   -1.4289   -0.4125    0.0000 C   0  0  0  0  0  0  0  2  0  0  0  0
   -2.1434    0.0000    0.0000 C   0  0  0  0  0  0  0  2  0  0  0  0
   -2.1434    0.8250    0.0000 C   0  0  0  0  0  0  0  2  0  0  0  0
   -1.4289    1.2375    0.0000 C   0  0  0  0  0  0  0  2  0  0  0  0
   -2.8579   -0.4125    0.0000 N   0  0  0  0  0  0  0  2  0  0  0  0
    2.8579   -0.4125    0.0000 N   0  0  0  0  0  0  0  2  0  0  0  0
  1  2  1  0        0
  2  3  4  0        0
  3  4  4  0        0
  4  5  4  0        0
  5  6  4  0        0
  6  7  4  0        0
  7  8  4  0        0
  3  8  4  0        0
  8  9  4  0        0
  9 10  4  0        0
 10 11  4  0        0
  2 11  4  0        0
 11 12  4  0        0
 12 13  4  0        0
 13 14  4  0        0
 14 15  4  0        0
 10 15  4  0        0
 13 16  1  0        0
  5 17  1  0        0
M  CHG  1   2   1
M  END
>  <CAS RN>
8048520

>  <SMILES>
C[n+]1c2cc(ccc2cc2c1cc(cc2)N)N

>  <Measured or Estimated Log10(mmol/L)>
-3.350804102

$$$$

CDXL12

 13 12  0  0  0  0  0  0  0  0999 V2000
    2.1434    0.2062    0.0000 C   0  0  0  0  0  0  0  2  0  0  0  0
    1.4289   -0.2063    0.0000 Si  0  0  0  0  0  0  0  2  0  0  0  0
    1.4289    0.6187    0.0000 C   0  0  0  0  0  0  0  2  0  0  0  0
    2.1434   -0.6188    0.0000 C   0  0  0  0  0  0  0  2  0  0  0  0
    0.7145   -0.6188    0.0000 O   0  0  0  0  0  0  0  2  0  0  0  0
    0.0000   -0.2062    0.0000 Si  0  0  0  0  0  0  0  2  0  0  0  0
    0.4125    0.5082    0.0000 C   0  0  0  0  0  0  0  2  0  0  0  0
   -0.4125    0.5082    0.0000 C   0  0  0  0  0  0  0  2  0  0  0  0
   -0.7145   -0.6188    0.0000 O   0  0  0  0  0  0  0  2  0  0  0  0
   -1.4289   -0.2063    0.0000 Si  0  0  0  0  0  0  0  2  0  0  0  0
   -2.1434   -0.6188    0.0000 C   0  0  0  0  0  0  0  2  0  0  0  0
   -1.4289    0.6188    0.0000 C   0  0  0  0  0  0  0  2  0  0  0  0
   -2.1434    0.2062    0.0000 C   0  0  0  0  0  0  0  2  0  0  0  0
  1  2  1  0        0
  2  3  1  0        0
  2  4  1  0        0
  2  5  1  0        0
  5  6  1  0        0
  6  7  1  0        0
  6  8  1  0        0
  6  9  1  0        0
  9 10  1  0        0
 10 11  1  0        0
 10 12  1  0        0
 10 13  1  0        0
M  END
>  <CAS RN>
8050815

>  <SMILES>
C[Si](C)(C)O[Si](C)(C)O[Si](C)(C)C

>  <Measured or Estimated Log10(mmol/L)>
-0.171954185

$$$$

CDXL12

 14 13  0  0  0  0  0  0  0  0999 V2000
    1.0717   -1.4437    0.0000 S   0  0  0  0  0  0  0  2  0  0  0  0
    1.0717   -0.6187    0.0000 P   0  0  0  0  0  0  0  2  0  0  0  0
    1.7862   -0.2062    0.0000 O   0  0  0  0  0  0  0  2  0  0  0  0
    2.5006   -0.6187    0.0000 C   0  0  0  0  0  0  0  2  0  0  0  0
    3.2151   -0.2062    0.0000 C   0  0  0  0  0  0  0  2  0  0  0  0
    1.0717    0.2063    0.0000 O   0  0  0  0  0  0  0  2  0  0  0  0
    1.7862    0.6187    0.0000 C   0  0  0  0  0  0  0  2  0  0  0  0
    1.7862    1.4437    0.0000 C   0  0  0  0  0  0  0  2  0  0  0  0
    0.3572   -0.2062    0.0000 O   0  0  0  0  0  0  0  2  0  0  0  0
   -0.3572   -0.6187    0.0000 C   0  0  0  0  0  0  0  2  0  0  0  0
   -1.0717   -0.2062    0.0000 C   0  0  0  0  0  0  0  2  0  0  0  0
   -1.7862   -0.6187    0.0000 S   0  0  0  0  0  0  0  2  0  0  0  0
   -2.5006   -0.2062    0.0000 C   0  0  0  0  0  0  0  2  0  0  0  0
   -3.2151   -0.6187    0.0000 C   0  0  0  0  0  0  0  2  0  0  0  0
  1  2  2  0        0
  2  3  1  0        0
  3  4  1  0        0
  4  5  1  0        0
  2  6  1  0        0
  6  7  1  0        0
  7  8  1  0        0
  2  9  1  0        0
  9 10  1  0        0
 10 11  1  0        0
 11 12  1  0        0
 12 13  1  0        0
 13 14  1  0        0
M  END
>  <CAS RN>
8065483

>  <SMILES>
S=P(OCC)(OCC)OCCSCC

>  <Measured or Estimated Log10(mmol/L)>
-5.179356987

$$$$

CDXL12

 16 15  0  0  0  0  0  0  0  0999 V2000
   -5.3585   -0.2062    0.0000 C   0  0  0  0  0  0  0  2  0  0  0  0
   -4.6441    0.2062    0.0000 C   0  0  0  0  0  0  0  2  0  0  0  0
   -3.9296   -0.2062    0.0000 C   0  0  0  0  0  0  0  2  0  0  0  0
   -3.2151    0.2062    0.0000 C   0  0  0  0  0  0  0  2  0  0  0  0
   -2.5006   -0.2062    0.0000 C   0  0  0  0  0  0  0  2  0  0  0  0
   -1.7862    0.2062    0.0000 C   0  0  0  0  0  0  0  2  0  0  0  0
   -1.0717   -0.2062    0.0000 C   0  0  0  0  0  0  0  2  0  0  0  0
   -0.3572    0.2062    0.0000 C   0  0  0  0  0  0  0  2  0  0  0  0
    0.3572   -0.2062    0.0000 C   0  0  0  0  0  0  0  2  0  0  0  0
    1.0717    0.2062    0.0000 C   0  0  0  0  0  0  0  2  0  0  0  0
    1.7862   -0.2062    0.0000 C   0  0  0  0  0  0  0  2  0  0  0  0
    2.5006    0.2062    0.0000 C   0  0  0  0  0  0  0  2  0  0  0  0
    3.2151   -0.2062    0.0000 O   0  0  0  0  0  0  0  2  0  0  0  0
    3.9296    0.2062    0.0000 C   0  0  0  0  0  0  0  2  0  0  0  0
    4.6441   -0.2062    0.0000 C   0  0  0  0  0  0  0  2  0  0  0  0
    5.3585    0.2062    0.0000 O   0  0  0  0  0  0  0  2  0  0  0  0
  1  2  1  0        0
  2  3  1  0        0
  3  4  1  0        0
  4  5  1  0        0
  5  6  1  0        0
  6  7  1  0        0
  7  8  1  0        0
  8  9  1  0        0
  9 10  1  0        0
 10 11  1  0        0
 11 12  1  0        0
 12 13  1  0        0
 13 14  1  0        0
 14 15  1  0        0
 15 16  1  0        0
M  END
>  <CAS RN>
9002920

>  <SMILES>
CCCCCCCCCCCCOCCO

>  <Measured or Estimated Log10(mmol/L)>
-1.552225075

$$$$

CDXL12

  7  7  0  0  0  0  0  0  0  0999 V2000
   -1.4521    0.4048    0.0000 C   0  0  0  0  0  0  0  2  0  0  0  0
   -0.6674    0.1498    0.0000 C   0  0  0  0  0  0  0  2  0  0  0  0
   -0.0000    0.6348    0.0000 C   0  0  0  0  0  0  0  2  0  0  0  0
    0.6674    0.1498    0.0000 C   0  0  0  0  0  0  0  2  0  0  0  0
    1.4521    0.4048    0.0000 O   0  0  0  0  0  0  0  2  0  0  0  0
    0.4125   -0.6348    0.0000 N   0  0  0  0  0  0  0  2  0  0  0  0
   -0.4125   -0.6348    0.0000 O   0  0  0  0  0  0  0  2  0  0  0  0
  1  2  1  0        0
  2  3  4  0        0
  3  4  4  0        0
  4  5  1  0        0
  4  6  4  0        0
  6  7  4  0        0
  2  7  4  0        0
M  END
>  <CAS RN>
10004441

>  <SMILES>
Cc1cc(O)no1

>  <Measured or Estimated Log10(mmol/L)>
-0.27669415

$$$$

CDXL12

  4  3  0  0  0  0  0  0  0  0999 V2000
    0.0000   -0.2062    0.0000 Cr  0  0  0  0  0  0  0  2  0  0  0  0
   -0.7145   -0.6187    0.0000 Cl  0  0  0  0  0  0  0  2  0  0  0  0
    0.7145   -0.6188    0.0000 Cl  0  0  0  0  0  0  0  2  0  0  0  0
    0.0000    0.6188    0.0000 Cl  0  0  0  0  0  0  0  2  0  0  0  0
  1  2  1  0        0
  1  3  1  0        0
  1  4  1  0        0
M  END
>  <CAS RN>
10025737

>  <SMILES>
[Cr](Cl)(Cl)Cl

>  <Measured or Estimated Log10(mmol/L)>
-3.116364883

$$$$

CDXL12

  4  3  0  0  0  0  0  0  0  0999 V2000
    0.0000   -0.2062    0.0000 Sb  0  0  0  0  0  0  0  2  0  0  0  0
   -0.7145   -0.6187    0.0000 Cl  0  0  0  0  0  0  0  2  0  0  0  0
    0.7145   -0.6188    0.0000 Cl  0  0  0  0  0  0  0  2  0  0  0  0
    0.0000    0.6188    0.0000 Cl  0  0  0  0  0  0  0  2  0  0  0  0
  1  2  1  0        0
  1  3  1  0        0
  1  4  1  0        0
M  END
>  <CAS RN>
10025919

>  <SMILES>
[Sb](Cl)(Cl)Cl

>  <Measured or Estimated Log10(mmol/L)>
-1.057981884

$$$$

CDXL12

  6  6  0  0  0  0  0  0  0  0999 V2000
   -0.8109   -0.8109    0.0000 Mn  0  0  0  0  0  0  0  2  0  0  0  0
   -0.8109    0.0141    0.0000 O   0  0  0  0  0  0  0  2  0  0  0  0
    0.0141    0.0141    0.0000 S   0  0  0  0  0  0  0  2  0  0  0  0
    0.0141   -0.8109    0.0000 O   0  0  0  0  0  0  0  2  0  0  0  0
    0.8109    0.2276    0.0000 O   0  0  0  0  0  0  0  2  0  0  0  0
    0.2276    0.8109    0.0000 O   0  0  0  0  0  0  0  2  0  0  0  0
  1  2  1  0        0
  2  3  1  0        0
  3  4  1  0        0
  1  4  1  0        0
  3  5  2  0        0
  3  6  2  0        0
M  END
>  <CAS RN>
10034965

>  <SMILES>
[Mn]1OS(O1)(=O)=O

>  <Measured or Estimated Log10(mmol/L)>
-0.137578501

$$$$

CDXL12

  3  2  0  0  0  0  0  0  0  0999 V2000
   -0.7145   -0.2062    0.0000 Cl  0  0  0  0  0  0  0  2  0  0  0  0
    0.0000    0.2062    0.0000 Ca  0  0  0  0  0  0  0  2  0  0  0  0
    0.7145   -0.2062    0.0000 Cl  0  0  0  0  0  0  0  2  0  0  0  0
  1  2  1  0        0
  2  3  1  0        0
M  END
>  <CAS RN>
10035048

>  <SMILES>
Cl[Ca]Cl

>  <Measured or Estimated Log10(mmol/L)>
1.29557235

$$$$

CDXL12

 17 18  0  0  0  0  0  0  0  0999 V2000
   -2.2258   -0.2135    0.0000 O   0  0  0  0  0  0  0  2  0  0  0  0
   -2.4394    0.5834    0.0000 S   0  0  0  0  0  0  0  2  0  0  0  0
   -2.8519    1.2978    0.0000 O   0  0  0  0  0  0  0  2  0  0  0  0
   -3.2644    0.5834    0.0000 O   0  0  0  0  0  0  0  2  0  0  0  0
   -1.6425    0.7969    0.0000 O   0  0  0  0  0  0  0  2  0  0  0  0
   -1.4289   -0.0000    0.0000 Al  0  0  0  0  0  0  0  2  0  0  0  0
   -0.7145   -0.4125    0.0000 O   0  0  0  0  0  0  0  2  0  0  0  0
   -0.0000   -0.0000    0.0000 S   0  0  0  0  0  0  0  2  0  0  0  0
   -0.4125    0.7145    0.0000 O   0  0  0  0  0  0  0  2  0  0  0  0
    0.4125   -0.7145    0.0000 O   0  0  0  0  0  0  0  2  0  0  0  0
    0.7145    0.4125    0.0000 O   0  0  0  0  0  0  0  2  0  0  0  0
    1.4289   -0.0000    0.0000 Al  0  0  0  0  0  0  0  2  0  0  0  0
    2.2258    0.2135    0.0000 O   0  0  0  0  0  0  0  2  0  0  0  0
    2.4394   -0.5834    0.0000 S   0  0  0  0  0  0  0  2  0  0  0  0
    2.8519   -1.2978    0.0000 O   0  0  0  0  0  0  0  2  0  0  0  0
    3.2644   -0.5834    0.0000 O   0  0  0  0  0  0  0  2  0  0  0  0
    1.6425   -0.7969    0.0000 O   0  0  0  0  0  0  0  2  0  0  0  0
  1  2  1  0        0
  2  3  2  0        0
  2  4  2  0        0
  2  5  1  0        0
  5  6  1  0        0
  1  6  1  0        0
  6  7  1  0        0
  7  8  1  0        0
  8  9  2  0        0
  8 10  2  0        0
  8 11  1  0        0
 11 12  1  0        0
 12 13  1  0        0
 13 14  1  0        0
 14 15  2  0        0
 14 16  2  0        0
 14 17  1  0        0
 12 17  1  0        0
M  END
>  <CAS RN>
10043013

>  <SMILES>
O1S(=O)(=O)O[Al]1OS(=O)(=O)O[Al]1OS(=O)(=O)O1

>  <Measured or Estimated Log10(mmol/L)>
-0.952145565

$$$$

CDXL12

  3  2  0  0  0  0  0  0  0  0999 V2000
   -0.7145   -0.2062    0.0000 Cl  0  0  0  0  0  0  0  2  0  0  0  0
    0.0000    0.2062    0.0000 Ca  0  0  0  0  0  0  0  2  0  0  0  0
    0.7145   -0.2062    0.0000 Cl  0  0  0  0  0  0  0  2  0  0  0  0
  1  2  1  0        0
  2  3  1  0        0
M  END
>  <CAS RN>
10043524

>  <SMILES>
Cl[Ca]Cl

>  <Measured or Estimated Log10(mmol/L)>
0.834973576

$$$$

CDXL12

  9  8  0  0  0  0  0  0  0  0999 V2000
   -0.0000   -0.2062    0.0000 Hg  0  0  0  0  0  0  0  2  0  0  0  0
    0.7145   -0.6188    0.0000 O   0  0  0  0  0  0  0  2  0  0  0  0
    1.4289   -0.2062    0.0000 N   0  0  0  0  0  0  0  2  0  0  0  0
    1.4289    0.6187    0.0000 O   0  0  0  0  0  0  0  2  0  0  0  0
    2.1434   -0.6188    0.0000 O   0  0  0  0  0  0  0  2  0  0  0  0
   -0.7145   -0.6188    0.0000 O   0  0  0  0  0  0  0  2  0  0  0  0
   -1.4289   -0.2062    0.0000 N   0  0  0  0  0  0  0  2  0  0  0  0
   -2.1434   -0.6187    0.0000 O   0  0  0  0  0  0  0  2  0  0  0  0
   -1.4289    0.6188    0.0000 O   0  0  0  0  0  0  0  2  0  0  0  0
  1  2  1  0        0
  2  3  1  0        0
  3  4  2  0        0
  3  5  2  0        0
  1  6  1  0        0
  6  7  1  0        0
  7  8  2  0        0
  7  9  2  0        0
M  END
>  <CAS RN>
10045940

>  <SMILES>
[Hg](ON(=O)=O)ON(=O)=O

>  <Measured or Estimated Log10(mmol/L)>
-3.510273253

$$$$

CDXL12

  3  2  0  0  0  0  0  0  0  0999 V2000
    0.0000    0.2062    0.0000 Cr  0  0  0  0  0  0  0  2  0  0  0  0
   -0.7145   -0.2062    0.0000 Cl  0  0  0  0  0  0  0  2  0  0  0  0
    0.7145   -0.2062    0.0000 Cl  0  0  0  0  0  0  0  2  0  0  0  0
  1  2  1  0        0
  1  3  1  0        0
M  END
>  <CAS RN>
10049055

>  <SMILES>
[Cr](Cl)Cl

>  <Measured or Estimated Log10(mmol/L)>
-0.756494749

$$$$

CDXL12

  9  8  0  0  0  0  0  0  0  0999 V2000
   -0.0000   -0.2062    0.0000 Pb  0  0  0  0  0  0  0  2  0  0  0  0
    0.7145   -0.6188    0.0000 O   0  0  0  0  0  0  0  2  0  0  0  0
    1.4289   -0.2062    0.0000 N   0  0  0  0  0  0  0  2  0  0  0  0
    1.4289    0.6187    0.0000 O   0  0  0  0  0  0  0  2  0  0  0  0
    2.1434   -0.6188    0.0000 O   0  0  0  0  0  0  0  2  0  0  0  0
   -0.7145   -0.6188    0.0000 O   0  0  0  0  0  0  0  2  0  0  0  0
   -1.4289   -0.2062    0.0000 N   0  0  0  0  0  0  0  2  0  0  0  0
   -2.1434   -0.6187    0.0000 O   0  0  0  0  0  0  0  2  0  0  0  0
   -1.4289    0.6188    0.0000 O   0  0  0  0  0  0  0  2  0  0  0  0
  1  2  1  0        0
  2  3  1  0        0
  3  4  2  0        0
  3  5  2  0        0
  1  6  1  0        0
  6  7  1  0        0
  7  8  2  0        0
  7  9  2  0        0
M  END
>  <CAS RN>
10099748

>  <SMILES>
[Pb](ON(=O)=O)ON(=O)=O

>  <Measured or Estimated Log10(mmol/L)>
-2.594273244

$$$$

CDXL12

 17 18  0  0  0  0  0  0  0  0999 V2000
   -2.2258   -0.2135    0.0000 O   0  0  0  0  0  0  0  2  0  0  0  0
   -2.4394    0.5834    0.0000 S   0  0  0  0  0  0  0  2  0  0  0  0
   -2.8519    1.2978    0.0000 O   0  0  0  0  0  0  0  2  0  0  0  0
   -3.2644    0.5834    0.0000 O   0  0  0  0  0  0  0  2  0  0  0  0
   -1.6425    0.7969    0.0000 O   0  0  0  0  0  0  0  2  0  0  0  0
   -1.4289   -0.0000    0.0000 Cr  0  0  0  0  0  0  0  2  0  0  0  0
   -0.7145   -0.4125    0.0000 O   0  0  0  0  0  0  0  2  0  0  0  0
   -0.0000   -0.0000    0.0000 S   0  0  0  0  0  0  0  2  0  0  0  0
   -0.4125    0.7145    0.0000 O   0  0  0  0  0  0  0  2  0  0  0  0
    0.4125   -0.7145    0.0000 O   0  0  0  0  0  0  0  2  0  0  0  0
    0.7145    0.4125    0.0000 O   0  0  0  0  0  0  0  2  0  0  0  0
    1.4289   -0.0000    0.0000 Cr  0  0  0  0  0  0  0  2  0  0  0  0
    2.2258    0.2135    0.0000 O   0  0  0  0  0  0  0  2  0  0  0  0
    2.4394   -0.5834    0.0000 S   0  0  0  0  0  0  0  2  0  0  0  0
    2.8519   -1.2978    0.0000 O   0  0  0  0  0  0  0  2  0  0  0  0
    3.2644   -0.5834    0.0000 O   0  0  0  0  0  0  0  2  0  0  0  0
    1.6425   -0.7969    0.0000 O   0  0  0  0  0  0  0  2  0  0  0  0
  1  2  1  0        0
  2  3  2  0        0
  2  4  2  0        0
  2  5  1  0        0
  5  6  1  0        0
  1  6  1  0        0
  6  7  1  0        0
  7  8  1  0        0
  8  9  2  0        0
  8 10  2  0        0
  8 11  1  0        0
 11 12  1  0        0
 12 13  1  0        0
 13 14  1  0        0
 14 15  2  0        0
 14 16  2  0        0
 14 17  1  0        0
 12 17  1  0        0
M  END
>  <CAS RN>
10101538

>  <SMILES>
O1S(=O)(=O)O[Cr]1OS(=O)(=O)O[Cr]1OS(=O)(=O)O1

>  <Measured or Estimated Log10(mmol/L)>
-4.116355328

$$$$

CDXL12

  6  6  0  0  0  0  0  0  0  0999 V2000
   -0.8109   -0.8109    0.0000 Ni  0  0  0  0  0  0  0  2  0  0  0  0
   -0.8109    0.0141    0.0000 O   0  0  0  0  0  0  0  2  0  0  0  0
    0.0141    0.0141    0.0000 S   0  0  0  0  0  0  0  2  0  0  0  0
    0.0141   -0.8109    0.0000 O   0  0  0  0  0  0  0  2  0  0  0  0
    0.8109    0.2276    0.0000 O   0  0  0  0  0  0  0  2  0  0  0  0
    0.2276    0.8109    0.0000 O   0  0  0  0  0  0  0  2  0  0  0  0
  1  2  1  0        0
  2  3  1  0        0
  3  4  1  0        0
  1  4  1  0        0
  3  5  2  0        0
  3  6  2  0        0
M  END
>  <CAS RN>
10101970

>  <SMILES>
[Ni]1OS(O1)(=O)=O

>  <Measured or Estimated Log10(mmol/L)>
-0.969578686

$$$$

CDXL12

  6  5  0  0  0  0  0  0  0  0999 V2000
    1.4289   -0.2062    0.0000 Na  0  0  0  0  0  0  0  2  0  0  0  0
    0.7145   -0.6188    0.0000 O   0  0  0  0  0  0  0  2  0  0  0  0
    0.0000   -0.2062    0.0000 Se  0  0  0  0  0  0  0  2  0  0  0  0
    0.0000    0.6188    0.0000 O   0  0  0  0  0  0  0  2  0  0  0  0
   -0.7145   -0.6187    0.0000 O   0  0  0  0  0  0  0  2  0  0  0  0
   -1.4289   -0.2062    0.0000 Na  0  0  0  0  0  0  0  2  0  0  0  0
  1  2  1  0        0
  2  3  1  0        0
  3  4  2  0        0
  3  5  1  0        0
  5  6  1  0        0
M  END
>  <CAS RN>
10102188

>  <SMILES>
[Na]O[Se](=O)O[Na]

>  <Measured or Estimated Log10(mmol/L)>
-2.584675407

$$$$

CDXL12

  3  2  0  0  0  0  0  0  0  0999 V2000
    0.0000    0.2062    0.0000 Cd  0  0  0  0  0  0  0  2  0  0  0  0
   -0.7145   -0.2062    0.0000 Cl  0  0  0  0  0  0  0  2  0  0  0  0
    0.7145   -0.2062    0.0000 Cl  0  0  0  0  0  0  0  2  0  0  0  0
  1  2  1  0        0
  1  3  1  0        0
M  END
>  <CAS RN>
10108642

>  <SMILES>
[Cd](Cl)Cl

>  <Measured or Estimated Log10(mmol/L)>
-3.371082078

$$$$

CDXL12

  4  3  0  0  0  0  0  0  0  0999 V2000
   -1.0717    0.2062    0.0000 Cl  0  0  0  0  0  0  0  2  0  0  0  0
   -0.3572   -0.2062    0.0000 Hg  0  0  0  0  0  0  0  2  0  0  0  0
    0.3572    0.2062    0.0000 Hg  0  0  0  0  0  0  0  2  0  0  0  0
    1.0717   -0.2062    0.0000 Cl  0  0  0  0  0  0  0  2  0  0  0  0
  1  2  1  0        0
  2  3  1  0        0
  3  4  1  0        0
M  END
>  <CAS RN>
10112911

>  <SMILES>
Cl[Hg][Hg]Cl

>  <Measured or Estimated Log10(mmol/L)>
-5.372991126

$$$$

CDXL12

  6  6  0  0  0  0  0  0  0  0999 V2000
    0.8109    0.2276    0.0000 O   0  0  0  0  0  0  0  2  0  0  0  0
    0.0141    0.0141    0.0000 S   0  0  0  0  0  0  0  2  0  0  0  0
    0.2276    0.8109    0.0000 O   0  0  0  0  0  0  0  2  0  0  0  0
    0.0141   -0.8109    0.0000 O   0  0  0  0  0  0  0  2  0  0  0  0
   -0.8109   -0.8109    0.0000 Cd  0  0  0  0  0  0  0  2  0  0  0  0
   -0.8109    0.0141    0.0000 O   0  0  0  0  0  0  0  2  0  0  0  0
  1  2  2  0        0
  2  3  2  0        0
  2  4  1  0        0
  4  5  1  0        0
  5  6  1  0        0
  2  6  1  0        0
M  END
>  <CAS RN>
10124364

>  <SMILES>
O=S1(=O)O[Cd]O1

>  <Measured or Estimated Log10(mmol/L)>
-2.526631044

$$$$

CDXL12

  7  6  0  0  0  0  0  0  0  0999 V2000
   -2.1434   -0.2062    0.0000 O   0  0  0  0  0  0  0  2  0  0  0  0
   -1.4289    0.2062    0.0000 N   0  0  0  0  0  0  0  2  0  0  0  0
   -0.7145   -0.2062    0.0000 O   0  0  0  0  0  0  0  2  0  0  0  0
    0.0000    0.2062    0.0000 Co  0  0  0  0  0  0  0  2  0  0  0  0
    0.7145   -0.2062    0.0000 O   0  0  0  0  0  0  0  2  0  0  0  0
    1.4289    0.2062    0.0000 N   0  0  0  0  0  0  0  2  0  0  0  0
    2.1434   -0.2062    0.0000 O   0  0  0  0  0  0  0  2  0  0  0  0
  1  2  2  0        0
  2  3  1  0        0
  3  4  1  0        0
  4  5  1  0        0
  5  6  1  0        0
  6  7  2  0        0
M  END
>  <CAS RN>
10141056

>  <SMILES>
O=NO[Co]ON=O

>  <Measured or Estimated Log10(mmol/L)>
-1.64733406

$$$$

CDXL12

  9  8  0  0  0  0  0  0  0  0999 V2000
    0.7647    0.8199    0.0000 O   0  0  0  0  0  0  0  2  0  0  0  0
    0.7647   -0.0051    0.0000 S   0  0  0  0  0  0  0  2  0  0  0  0
    1.4791   -0.4176    0.0000 O   0  0  0  0  0  0  0  2  0  0  0  0
    0.0502   -0.4176    0.0000 O   0  0  0  0  0  0  0  2  0  0  0  0
   -0.6643   -0.0051    0.0000 N   0  0  0  0  0  0  0  2  0  0  0  0
   -0.0809    0.5783    0.0000 H   0  0  0  0  0  0  0  2  0  0  0  0
   -1.0388    0.7300    0.0000 H   0  0  0  0  0  0  0  2  0  0  0  0
   -1.4791   -0.1341    0.0000 H   0  0  0  0  0  0  0  2  0  0  0  0
   -0.7933   -0.8199    0.0000 H   0  0  0  0  0  0  0  2  0  0  0  0
  1  2  2  0        0
  2  3  1  0        0
  2  4  1  0        0
  4  5  1  0        0
  5  6  1  0        0
  5  7  1  0        0
  5  8  1  0        0
  5  9  1  0        0
M  END
>  <CAS RN>
10192300

>  <SMILES>
O=S(O)ON([H])([H])([H])[H]

>  <Measured or Estimated Log10(mmol/L)>
0.20197539

$$$$

CDXL12

  8  7  0  0  0  0  0  0  0  0999 V2000
    0.7145    0.9760    0.0000 O   0  0  0  0  0  0  0  2  0  0  0  0
    0.7145    0.1510    0.0000 C   0  0  0  0  0  0  0  2  0  0  0  0
    1.4289   -0.2615    0.0000 N   0  0  0  0  0  0  0  2  0  0  0  0
    0.0000   -0.2615    0.0000 C   0  0  0  0  0  0  0  2  0  0  0  0
   -0.7145    0.1510    0.0000 C   0  0  0  0  0  0  0  2  0  0  0  0
   -1.4289    0.5635    0.0000 N   0  0  0  0  0  0  0  2  0  0  0  0
   -0.4125   -0.9760    0.0000 Br  0  0  0  0  0  0  0  2  0  0  0  0
    0.4125   -0.9760    0.0000 Br  0  0  0  0  0  0  0  2  0  0  0  0
  1  2  2  0        0
  2  3  1  0        0
  2  4  1  0        0
  4  5  1  0        0
  5  6  3  0        0
  4  7  1  0        0
  4  8  1  0        0
M  END
>  <CAS RN>
10222012

>  <SMILES>
O=C(N)C(C#N)(Br)Br

>  <Measured or Estimated Log10(mmol/L)>
-2.7406916

$$$$

CDXL12

  9  8  0  0  0  0  0  0  0  0999 V2000
    1.4289    0.6187    0.0000 O   0  0  0  0  0  0  0  2  0  0  0  0
    1.4289   -0.2062    0.0000 N   0  0  0  0  0  0  0  2  0  0  0  0
    2.1434   -0.6188    0.0000 O   0  0  0  0  0  0  0  2  0  0  0  0
    0.7145   -0.6188    0.0000 O   0  0  0  0  0  0  0  2  0  0  0  0
   -0.0000   -0.2062    0.0000 Cd  0  0  0  0  0  0  0  2  0  0  0  0
   -0.7145   -0.6188    0.0000 O   0  0  0  0  0  0  0  2  0  0  0  0
   -1.4289   -0.2062    0.0000 N   0  0  0  0  0  0  0  2  0  0  0  0
   -2.1434   -0.6187    0.0000 O   0  0  0  0  0  0  0  2  0  0  0  0
   -1.4289    0.6188    0.0000 O   0  0  0  0  0  0  0  2  0  0  0  0
  1  2  2  0        0
  2  3  2  0        0
  2  4  1  0        0
  4  5  1  0        0
  5  6  1  0        0
  6  7  1  0        0
  7  8  2  0        0
  7  9  2  0        0
M  END
>  <CAS RN>
10325947

>  <SMILES>
O=N(=O)O[Cd]ON(=O)=O

>  <Measured or Estimated Log10(mmol/L)>
-4.027309194

$$$$

CDXL12

 11 10  0  0  0  0  0  0  0  0999 V2000
    2.1434   -0.0000    0.0000 Na  0  0  0  0  0  0  0  2  0  0  0  0
    1.4289    0.4125    0.0000 O   0  0  0  0  0  0  0  2  0  0  0  0
    0.7145    0.0000    0.0000 Cr  0  0  0  0  0  0  0  2  0  0  0  0
    1.1270   -0.7145    0.0000 O   0  0  0  0  0  0  0  2  0  0  0  0
    0.3020    0.7145    0.0000 O   0  0  0  0  0  0  0  2  0  0  0  0
    0.0000   -0.4125    0.0000 O   0  0  0  0  0  0  0  2  0  0  0  0
   -0.7145   -0.0000    0.0000 Cr  0  0  0  0  0  0  0  2  0  0  0  0
   -0.3020    0.7145    0.0000 O   0  0  0  0  0  0  0  2  0  0  0  0
   -1.1270   -0.7145    0.0000 O   0  0  0  0  0  0  0  2  0  0  0  0
   -1.4289    0.4125    0.0000 O   0  0  0  0  0  0  0  2  0  0  0  0
   -2.1434   -0.0000    0.0000 Na  0  0  0  0  0  0  0  2  0  0  0  0
  1  2  1  0        0
  2  3  1  0        0
  3  4  2  0        0
  3  5  2  0        0
  3  6  1  0        0
  6  7  1  0        0
  7  8  2  0        0
  7  9  2  0        0
  7 10  1  0        0
 10 11  1  0        0
M  END
>  <CAS RN>
10588019

>  <SMILES>
[Na]O[Cr](=O)(=O)O[Cr](=O)(=O)O[Na]

>  <Measured or Estimated Log10(mmol/L)>
-2.955845273

$$$$

CDXL12

  2  1  0  0  0  0  0  0  0  0999 V2000
   -0.4125    0.0000    0.0000 N   0  0  0  0  0  0  0  2  0  0  0  0
    0.4125    0.0000    0.0000 Cl  0  0  0  0  0  0  0  2  0  0  0  0
  1  2  1  0        0
M  END
>  <CAS RN>
10599903

>  <SMILES>
NCl

>  <Measured or Estimated Log10(mmol/L)>
-3.481155862

$$$$

CDXL12

 14 15  0  0  0  0  0  0  0  0999 V2000
   -2.5867    0.7145    0.0000 C   0  0  0  0  0  0  0  2  0  0  0  0
   -2.5867   -0.1105    0.0000 C   0  0  0  0  0  0  0  2  0  0  0  0
   -1.8723   -0.5230    0.0000 C   0  0  0  0  0  0  0  2  0  0  0  0
   -1.1578   -0.1105    0.0000 C   0  0  0  0  0  0  0  2  0  0  0  0
   -0.3732   -0.3655    0.0000 N   0  0  0  0  0  0  0  2  0  0  0  0
    0.1117    0.3020    0.0000 C   0  0  0  0  0  0  0  2  0  0  0  0
    0.9367    0.3020    0.0000 N   0  0  0  0  0  0  0  2  0  0  0  0
    1.3492   -0.4125    0.0000 C   0  0  0  0  0  0  0  2  0  0  0  0
    0.9367   -1.1270    0.0000 O   0  0  0  0  0  0  0  2  0  0  0  0
    2.1742   -0.4125    0.0000 O   0  0  0  0  0  0  0  2  0  0  0  0
    2.5867   -1.1270    0.0000 C   0  0  0  0  0  0  0  2  0  0  0  0
   -0.3732    0.9694    0.0000 N   0  0  0  0  0  0  0  2  0  0  0  0
   -1.1578    0.7145    0.0000 C   0  0  0  0  0  0  0  2  0  0  0  0
   -1.8723    1.1270    0.0000 C   0  0  0  0  0  0  0  2  0  0  0  0
  1  2  4  0        0
  2  3  4  0        0
  3  4  4  0        0
  4  5  4  0        0
  5  6  4  0        0
  6  7  1  0        0
  7  8  1  0        0
  8  9  2  0        0
  8 10  1  0        0
 10 11  1  0        0
  6 12  4  0        0
 12 13  4  0        0
  4 13  4  0        0
 13 14  4  0        0
  1 14  4  0        0
M  END
>  <CAS RN>
10605217

>  <SMILES>
c1ccc2nc(NC(=O)OC)[nH]c2c1

>  <Measured or Estimated Log10(mmol/L)>
-2.541102484

$$$$

CDXL12

 22 22  0  0  0  0  0  0  0  0999 V2000
    3.5724    0.3572    0.0000 C   0  0  0  0  0  0  0  2  0  0  0  0
    3.5724   -0.4678    0.0000 C   0  0  0  0  0  0  0  2  0  0  0  0
    4.2868   -0.8803    0.0000 C   0  0  0  0  0  0  0  2  0  0  0  0
    2.8579   -0.8803    0.0000 C   0  0  0  0  0  0  0  2  0  0  0  0
    2.1434   -0.4678    0.0000 C   0  0  0  0  0  0  0  2  0  0  0  0
    2.1434    0.3572    0.0000 C   0  0  0  0  0  0  0  2  0  0  0  0
    1.4289   -0.8803    0.0000 C   0  0  0  0  0  0  0  2  0  0  0  0
    0.7145   -0.4678    0.0000 C   0  0  0  0  0  0  0  2  0  0  0  0
    0.7145    0.3572    0.0000 C   0  0  0  0  0  0  0  2  0  0  0  0
   -0.0000   -0.8803    0.0000 C   0  0  0  0  0  0  0  2  0  0  0  0
   -0.7145   -0.4678    0.0000 C   0  0  0  0  0  0  0  2  0  0  0  0
   -0.7145    0.3572    0.0000 C   0  0  0  0  0  0  0  2  0  0  0  0
   -1.4289   -0.8803    0.0000 O   0  0  0  0  0  0  0  2  0  0  0  0
   -2.1434   -0.4678    0.0000 S   0  0  0  0  0  0  0  2  0  0  0  0
   -1.7309    0.2467    0.0000 O   0  0  0  0  0  0  0  2  0  0  0  0
   -2.5559   -1.1822    0.0000 O   0  0  0  0  0  0  0  2  0  0  0  0
   -2.8579   -0.0553    0.0000 C   0  0  0  0  0  0  0  2  0  0  0  0
   -3.5724   -0.4678    0.0000 C   0  0  0  0  0  0  0  2  0  0  0  0
   -4.2868   -0.0553    0.0000 C   0  0  0  0  0  0  0  2  0  0  0  0
   -4.2868    0.7697    0.0000 C   0  0  0  0  0  0  0  2  0  0  0  0
   -3.5724    1.1822    0.0000 C   0  0  0  0  0  0  0  2  0  0  0  0
   -2.8579    0.7697    0.0000 C   0  0  0  0  0  0  0  2  0  0  0  0
  1  2  1  0        0
  2  3  1  0        0
  2  4  1  0        0
  4  5  1  0        0
  5  6  1  0        0
  5  7  1  0        0
  7  8  1  0        0
  8  9  1  0        0
  8 10  1  0        0
 10 11  1  0        0
 11 12  1  0        0
 11 13  1  0        0
 13 14  1  0        0
 14 15  2  0        0
 14 16  2  0        0
 14 17  1  0        0
 17 18  4  0        0
 18 19  4  0        0
 19 20  4  0        0
 20 21  4  0        0
 21 22  4  0        0
 17 22  4  0        0
M  END
>  <CAS RN>
11067815

>  <SMILES>
CC(C)CC(C)CC(C)CC(C)OS(=O)(=O)c1ccccc1

>  <Measured or Estimated Log10(mmol/L)>
-1.527793745

$$$$

CDXL12

  4  3  0  0  0  0  0  0  0  0999 V2000
   -0.7145   -0.6187    0.0000 O   0  0  0  0  0  0  0  2  0  0  0  0
    0.0000   -0.2062    0.0000 B   0  0  0  0  0  0  0  2  0  0  0  0
    0.7145   -0.6188    0.0000 O   0  0  0  0  0  0  0  2  0  0  0  0
    0.0000    0.6188    0.0000 O   0  0  0  0  0  0  0  2  0  0  0  0
  1  2  1  0        0
  2  3  1  0        0
  2  4  1  0        0
M  END
>  <CAS RN>
11113501

>  <SMILES>
OB(O)O

>  <Measured or Estimated Log10(mmol/L)>
0.332638347

$$$$

CDXL12

  9  9  0  0  0  0  0  0  0  0999 V2000
    1.4289    1.2375    0.0000 Cl  0  0  0  0  0  0  0  2  0  0  0  0
    0.7145    0.8250    0.0000 C   0  0  0  0  0  0  0  2  0  0  0  0
    0.7145   -0.0000    0.0000 C   0  0  0  0  0  0  0  2  0  0  0  0
    0.0000   -0.4125    0.0000 C   0  0  0  0  0  0  0  2  0  0  0  0
   -0.7145   -0.0000    0.0000 C   0  0  0  0  0  0  0  2  0  0  0  0
   -0.7145    0.8250    0.0000 C   0  0  0  0  0  0  0  2  0  0  0  0
    0.0000    1.2375    0.0000 C   0  0  0  0  0  0  0  2  0  0  0  0
   -1.4289    1.2375    0.0000 Cl  0  0  0  0  0  0  0  2  0  0  0  0
    0.0000   -1.2375    0.0000 Cl  0  0  0  0  0  0  0  2  0  0  0  0
  1  2  1  0        0
  2  3  4  0        0
  3  4  4  0        0
  4  5  4  0        0
  5  6  4  0        0
  6  7  4  0        0
  2  7  4  0        0
  6  8  1  0        0
  4  9  1  0        0
M  END
>  <CAS RN>
12002481

>  <SMILES>
Clc1cc(cc(c1)Cl)Cl

>  <Measured or Estimated Log10(mmol/L)>
-1.395729283

$$$$

CDXL12

 11 11  0  0  0  0  0  0  0  0999 V2000
   -0.6674    0.2715    0.0000 N   0  0  0  0  0  0  0  2  0  0  0  0
   -0.4125    1.0561    0.0000 C   0  0  0  0  0  0  0  2  0  0  0  0
    0.4125    1.0561    0.0000 C   0  0  0  0  0  0  0  2  0  0  0  0
    0.6674    0.2715    0.0000 N   0  0  0  0  0  0  0  2  0  0  0  0
    1.2195   -0.3416    0.0000 C   0  0  0  0  0  0  0  2  0  0  0  0
    2.0400   -0.2554    0.0000 S   0  0  0  0  0  0  0  2  0  0  0  0
    0.8070   -1.0561    0.0000 S   0  0  0  0  0  0  0  2  0  0  0  0
   -0.0000   -0.8846    0.0000 Zn  0  0  0  0  0  0  0  2  0  0  0  0
   -0.8070   -1.0561    0.0000 S   0  0  0  0  0  0  0  2  0  0  0  0
   -1.2195   -0.3416    0.0000 C   0  0  0  0  0  0  0  2  0  0  0  0
   -2.0400   -0.2554    0.0000 S   0  0  0  0  0  0  0  2  0  0  0  0
  1  2  1  0        0
  2  3  1  0        0
  3  4  1  0        0
  4  5  1  0        0
  5  6  2  0        0
  5  7  1  0        0
  7  8  1  0        0
  8  9  1  0        0
  9 10  1  0        0
  1 10  1  0        0
 10 11  2  0        0
M  END
>  <CAS RN>
12122677

>  <SMILES>
N1CCNC(=S)S[Zn]SC1=S

>  <Measured or Estimated Log10(mmol/L)>
-2.453715437

$$$$

CDXL12

  6  5  0  0  0  0  0  0  0  0999 V2000
    0.4849   -0.7462    0.0000 Cl  0  0  0  0  0  0  0  2  0  0  0  0
    0.0000   -0.0788    0.0000 N   0  0  0  0  0  0  0  2  0  0  0  0
    0.7846    0.1762    0.0000 H   0  0  0  0  0  0  0  2  0  0  0  0
    0.0000    0.7462    0.0000 H   0  0  0  0  0  0  0  2  0  0  0  0
   -0.7846    0.1762    0.0000 H   0  0  0  0  0  0  0  2  0  0  0  0
   -0.4849   -0.7462    0.0000 H   0  0  0  0  0  0  0  2  0  0  0  0
  1  2  1  0        0
  2  3  1  0        0
  2  4  1  0        0
  2  5  1  0        0
  2  6  1  0        0
M  END
>  <CAS RN>
12125029

>  <SMILES>
ClN([H])([H])([H])[H]

>  <Measured or Estimated Log10(mmol/L)>
0.303015674

$$$$

CDXL12

  7  7  0  0  0  0  0  0  0  0999 V2000
   -1.1026    1.1026    0.0000 O   0  0  0  0  0  0  0  2  0  0  0  0
   -0.5193    0.5193    0.0000 V   0  0  0  0  0  0  0  2  0  0  0  0
   -0.5193   -0.3057    0.0000 O   0  0  0  0  0  0  0  2  0  0  0  0
    0.3057   -0.3057    0.0000 S   0  0  0  0  0  0  0  2  0  0  0  0
    0.5193   -1.1026    0.0000 O   0  0  0  0  0  0  0  2  0  0  0  0
    1.1026   -0.5193    0.0000 O   0  0  0  0  0  0  0  2  0  0  0  0
    0.3057    0.5193    0.0000 O   0  0  0  0  0  0  0  2  0  0  0  0
  1  2  2  0        0
  2  3  1  0        0
  3  4  1  0        0
  4  5  2  0        0
  4  6  2  0        0
  4  7  1  0        0
  2  7  1  0        0
M  END
>  <CAS RN>
12210478

>  <SMILES>
O=[V]1OS(=O)(=O)O1

>  <Measured or Estimated Log10(mmol/L)>
-1.954511689

$$$$

CDXL12

 11 11  0  0  0  0  0  0  0  0999 V2000
   -0.6674    0.3146    0.0000 Mn  0  0  0  0  0  0  0  2  0  0  0  0
   -0.4125    1.0992    0.0000 S   0  0  0  0  0  0  0  2  0  0  0  0
    0.4125    1.0992    0.0000 C   0  0  0  0  0  0  0  2  0  0  0  0
    0.8974    1.7667    0.0000 S   0  0  0  0  0  0  0  2  0  0  0  0
    0.6674    0.3146    0.0000 N   0  0  0  0  0  0  0  2  0  0  0  0
    1.2195   -0.2985    0.0000 C   0  0  0  0  0  0  0  2  0  0  0  0
    0.8070   -1.0130    0.0000 C   0  0  0  0  0  0  0  2  0  0  0  0
   -0.0000   -0.8414    0.0000 N   0  0  0  0  0  0  0  2  0  0  0  0
   -0.8070   -1.0130    0.0000 C   0  0  0  0  0  0  0  2  0  0  0  0
   -1.1425   -1.7667    0.0000 S   0  0  0  0  0  0  0  2  0  0  0  0
   -1.2195   -0.2985    0.0000 S   0  0  0  0  0  0  0  2  0  0  0  0
  1  2  1  0        0
  2  3  1  0        0
  3  4  2  0        0
  3  5  1  0        0
  5  6  1  0        0
  6  7  1  0        0
  7  8  1  0        0
  8  9  1  0        0
  9 10  2  0        0
  9 11  1  0        0
  1 11  1  0        0
M  END
>  <CAS RN>
12427382

>  <SMILES>
[Mn]1SC(=S)NCCNC(=S)S1

>  <Measured or Estimated Log10(mmol/L)>
-2.42373725

$$$$

CDXL12

 18 20  0  0  0  0  0  0  0  0999 V2000
    0.8091   -0.6674    0.0000 C   0  0  0  0  0  0  0  2  0  0  0  0
    0.0244   -0.4125    0.0000 C   0  0  0  0  0  0  0  2  0  0  0  0
    0.0244    0.4125    0.0000 C   0  0  0  0  0  0  0  2  0  0  0  0
    0.8091    0.6674    0.0000 C   0  0  0  0  0  0  0  2  0  0  0  0
    1.2940    0.0000    0.0000 C   0  0  0  0  0  0  0  2  0  0  0  0
    2.1190    0.0000    0.0000 Cl  0  0  0  0  0  0  0  2  0  0  0  0
    1.0640    1.4521    0.0000 Cl  0  0  0  0  0  0  0  2  0  0  0  0
   -0.6900    0.8250    0.0000 C   0  0  0  0  0  0  0  2  0  0  0  0
   -1.4045    0.4125    0.0000 C   0  0  0  0  0  0  0  2  0  0  0  0
   -1.4045   -0.4125    0.0000 C   0  0  0  0  0  0  0  2  0  0  0  0
   -0.6900   -0.8250    0.0000 C   0  0  0  0  0  0  0  2  0  0  0  0
   -1.0266    0.0000    0.0000 C   0  0  0  0  0  0  0  2  0  0  0  0
   -1.7410    0.4125    0.0000 Cl  0  0  0  0  0  0  0  2  0  0  0  0
   -1.7410   -0.4125    0.0000 Cl  0  0  0  0  0  0  0  2  0  0  0  0
   -0.6900   -1.6500    0.0000 Cl  0  0  0  0  0  0  0  2  0  0  0  0
   -2.1190   -0.8250    0.0000 Cl  0  0  0  0  0  0  0  2  0  0  0  0
   -2.1190    0.8250    0.0000 Cl  0  0  0  0  0  0  0  2  0  0  0  0
   -0.6900    1.6500    0.0000 Cl  0  0  0  0  0  0  0  2  0  0  0  0
  1  2  1  0        0
  2  3  1  0        0
  3  4  1  0        0
  4  5  1  0        0
  1  5  1  0        0
  5  6  1  0        0
  4  7  1  0        0
  3  8  1  0        0
  8  9  1  0        0
  9 10  2  0        0
 10 11  1  0        0
  2 11  1  0        0
 11 12  1  0        0
  8 12  1  0        0
 12 13  1  0        0
 12 14  1  0        0
 11 15  1  0        0
 10 16  1  0        0
  9 17  1  0        0
  8 18  1  0        0
M  END
>  <CAS RN>
12789036

>  <SMILES>
C1C2C(C(C1Cl)Cl)C1(\C(=C(/C2(C1(Cl)Cl)Cl)\Cl)\Cl)Cl

>  <Measured or Estimated Log10(mmol/L)>
-4.068484833

$$$$

CDXL12

 15 14  0  0  0  0  0  0  0  0999 V2000
    2.8579   -0.2062    0.0000 C   0  0  0  0  0  0  0  2  0  0  0  0
    2.1434   -0.6187    0.0000 C   0  0  0  0  0  0  0  2  0  0  0  0
    1.4289   -0.2062    0.0000 O   0  0  0  0  0  0  0  2  0  0  0  0
    0.7145   -0.6187    0.0000 P   0  0  0  0  0  0  0  2  0  0  0  0
    0.7145   -1.4437    0.0000 S   0  0  0  0  0  0  0  2  0  0  0  0
    0.7145    0.2063    0.0000 O   0  0  0  0  0  0  0  2  0  0  0  0
    1.4289    0.6188    0.0000 C   0  0  0  0  0  0  0  2  0  0  0  0
    1.4289    1.4437    0.0000 C   0  0  0  0  0  0  0  2  0  0  0  0
    0.0000   -0.2062    0.0000 S   0  0  0  0  0  0  0  2  0  0  0  0
   -0.7145   -0.6187    0.0000 C   0  0  0  0  0  0  0  2  0  0  0  0
   -1.4289   -0.2062    0.0000 S   0  0  0  0  0  0  0  2  0  0  0  0
   -2.1434   -0.6187    0.0000 C   0  0  0  0  0  0  0  2  0  0  0  0
   -2.1434   -1.4437    0.0000 C   0  0  0  0  0  0  0  2  0  0  0  0
   -2.8579   -1.0312    0.0000 C   0  0  0  0  0  0  0  2  0  0  0  0
   -2.8579   -0.2062    0.0000 C   0  0  0  0  0  0  0  2  0  0  0  0
  1  2  1  0        0
  2  3  1  0        0
  3  4  1  0        0
  4  5  2  0        0
  4  6  1  0        0
  6  7  1  0        0
  7  8  1  0        0
  4  9  1  0        0
  9 10  1  0        0
 10 11  1  0        0
 11 12  1  0        0
 12 13  1  0        0
 12 14  1  0        0
 12 15  1  0        0
M  END
>  <CAS RN>
13071799

>  <SMILES>
CCOP(=S)(OCC)SCSC(C)(C)C

>  <Measured or Estimated Log10(mmol/L)>
-5.688754601

$$$$

CDXL12

  9  8  0  0  0  0  0  0  0  0999 V2000
    1.4289    0.6187    0.0000 O   0  0  0  0  0  0  0  2  0  0  0  0
    1.4289   -0.2062    0.0000 N   0  0  0  0  0  0  0  2  0  0  0  0
    2.1434   -0.6188    0.0000 O   0  0  0  0  0  0  0  2  0  0  0  0
    0.7145   -0.6188    0.0000 O   0  0  0  0  0  0  0  2  0  0  0  0
   -0.0000   -0.2062    0.0000 Ni  0  0  0  0  0  0  0  2  0  0  0  0
   -0.7145   -0.6188    0.0000 O   0  0  0  0  0  0  0  2  0  0  0  0
   -1.4289   -0.2062    0.0000 N   0  0  0  0  0  0  0  2  0  0  0  0
   -2.1434   -0.6187    0.0000 O   0  0  0  0  0  0  0  2  0  0  0  0
   -1.4289    0.6188    0.0000 O   0  0  0  0  0  0  0  2  0  0  0  0
  1  2  2  0        0
  2  3  2  0        0
  2  4  1  0        0
  4  5  1  0        0
  5  6  1  0        0
  6  7  1  0        0
  7  8  2  0        0
  7  9  2  0        0
M  END
>  <CAS RN>
13138459

>  <SMILES>
O=N(=O)O[Ni]ON(=O)=O

>  <Measured or Estimated Log10(mmol/L)>
-2.300360239

$$$$

CDXL12

 12 12  0  0  0  0  0  0  0  0999 V2000
    1.0717    0.0000    0.0000 N   0  0  0  0  0  0  0  2  0  0  0  0
    1.0717   -0.8250    0.0000 C   0  0  0  0  0  0  0  2  0  0  0  0
    1.7862   -1.2375    0.0000 Cl  0  0  0  0  0  0  0  2  0  0  0  0
    0.3572   -1.2375    0.0000 N   0  0  0  0  0  0  0  2  0  0  0  0
   -0.3572   -0.8250    0.0000 C   0  0  0  0  0  0  0  2  0  0  0  0
   -1.0717   -1.2375    0.0000 Cl  0  0  0  0  0  0  0  2  0  0  0  0
   -0.3572   -0.0000    0.0000 C   0  0  0  0  0  0  0  2  0  0  0  0
   -1.0717    0.4125    0.0000 N   0  0  0  0  0  0  0  2  0  0  0  0
   -1.0717    1.2375    0.0000 O   0  0  0  0  0  0  0  2  0  0  0  0
   -1.7862   -0.0000    0.0000 O   0  0  0  0  0  0  0  2  0  0  0  0
    0.3572    0.4125    0.0000 C   0  0  0  0  0  0  0  2  0  0  0  0
    0.3572    1.2375    0.0000 C   0  0  0  0  0  0  0  2  0  0  0  0
  1  2  4  0        0
  2  3  1  0        0
  2  4  4  0        0
  4  5  4  0        0
  5  6  1  0        0
  5  7  4  0        0
  7  8  1  0        0
  8  9  2  0        0
  8 10  2  0        0
  7 11  4  0        0
  1 11  4  0        0
 11 12  1  0        0
M  END
>  <CAS RN>
13162260

>  <SMILES>
n1c(Cl)nc(Cl)c(N(=O)=O)c1C

>  <Measured or Estimated Log10(mmol/L)>
-0.804861282

$$$$

CDXL12

 18 17  0  0  0  0  0  0  0  0999 V2000
    3.2151    0.0000    0.0000 C   0  0  0  0  0  0  0  2  0  0  0  0
    2.5006    0.4125    0.0000 C   0  0  0  0  0  0  0  2  0  0  0  0
    1.7862   -0.0000    0.0000 N   0  0  0  0  0  0  0  2  0  0  0  0
    1.7862   -0.8250    0.0000 C   0  0  0  0  0  0  0  2  0  0  0  0
    2.5006   -1.2375    0.0000 C   0  0  0  0  0  0  0  2  0  0  0  0
    1.0717    0.4125    0.0000 C   0  0  0  0  0  0  0  2  0  0  0  0
    1.0717    1.2375    0.0000 O   0  0  0  0  0  0  0  2  0  0  0  0
    0.3572   -0.0000    0.0000 C   0  0  0  0  0  0  0  2  0  0  0  0
    0.3572   -0.8250    0.0000 Cl  0  0  0  0  0  0  0  2  0  0  0  0
   -0.3572    0.4125    0.0000 C   0  0  0  0  0  0  0  2  0  0  0  0
   -0.3572    1.2375    0.0000 C   0  0  0  0  0  0  0  2  0  0  0  0
   -1.0717   -0.0000    0.0000 O   0  0  0  0  0  0  0  2  0  0  0  0
   -1.7862    0.4125    0.0000 P   0  0  0  0  0  0  0  2  0  0  0  0
   -1.7862    1.2375    0.0000 O   0  0  0  0  0  0  0  2  0  0  0  0
   -2.5006   -0.0000    0.0000 O   0  0  0  0  0  0  0  2  0  0  0  0
   -3.2151    0.4125    0.0000 C   0  0  0  0  0  0  0  2  0  0  0  0
   -1.7862   -0.4125    0.0000 O   0  0  0  0  0  0  0  2  0  0  0  0
   -2.5006   -0.8250    0.0000 C   0  0  0  0  0  0  0  2  0  0  0  0
  1  2  1  0        0
  2  3  1  0        0
  3  4  1  0        0
  4  5  1  0        0
  3  6  1  0        0
  6  7  2  0        0
  6  8  1  0        0
  8  9  1  0        0
  8 10  2  0        0
 10 11  1  0        0
 10 12  1  0        0
 12 13  1  0        0
 13 14  2  0        0
 13 15  1  0        0
 15 16  1  0        0
 13 17  1  0        0
 17 18  1  0        0
M  END
>  <CAS RN>
13171216

>  <SMILES>
CCN(CC)C(=O)C(Cl)=C(C)OP(=O)(OC)OC

>  <Measured or Estimated Log10(mmol/L)>
-4.622261321

$$$$

CDXL12

  5  4  0  0  0  0  0  0  0  0999 V2000
    0.0000   -0.0000    0.0000 Se  0  0  0  0  0  0  0  2  0  0  0  0
    0.0000   -0.8250    0.0000 O   0  0  0  0  0  0  0  2  0  0  0  0
    0.0000    0.8250    0.0000 O   0  0  0  0  0  0  0  2  0  0  0  0
   -0.8250   -0.0000    0.0000 O   0  0  0  0  0  0  0  2  0  0  0  0
    0.8250   -0.0000    0.0000 O   0  0  0  0  0  0  0  2  0  0  0  0
  1  2  2  0        0
  1  3  2  0        0
  1  4  1  0        0
  1  5  1  0        0
M  END
>  <CAS RN>
13410010

>  <SMILES>
[Se](=O)(=O)(O)O

>  <Measured or Estimated Log10(mmol/L)>
-2.156747813

$$$$

CDXL12

 15 14  0  0  0  0  0  0  0  0999 V2000
   -4.2868   -0.0000    0.0000 C   0  0  0  0  0  0  0  2  0  0  0  0
   -3.5724   -0.4125    0.0000 C   0  0  0  0  0  0  0  2  0  0  0  0
   -2.8579   -0.0000    0.0000 C   0  0  0  0  0  0  0  2  0  0  0  0
   -2.1434   -0.4125    0.0000 C   0  0  0  0  0  0  0  2  0  0  0  0
   -1.4289   -0.0000    0.0000 C   0  0  0  0  0  0  0  2  0  0  0  0
   -0.7145   -0.4125    0.0000 C   0  0  0  0  0  0  0  2  0  0  0  0
    0.0000   -0.0000    0.0000 C   0  0  0  0  0  0  0  2  0  0  0  0
    0.7145   -0.4125    0.0000 C   0  0  0  0  0  0  0  2  0  0  0  0
    1.4289    0.0000    0.0000 C   0  0  0  0  0  0  0  2  0  0  0  0
    2.1434   -0.4125    0.0000 C   0  0  0  0  0  0  0  2  0  0  0  0
    2.8579   -0.0000    0.0000 S   0  0  0  0  0  0  0  2  0  0  0  0
    2.4454    0.7145    0.0000 O   0  0  0  0  0  0  0  2  0  0  0  0
    3.2704   -0.7145    0.0000 O   0  0  0  0  0  0  0  2  0  0  0  0
    3.5724    0.4125    0.0000 O   0  0  0  0  0  0  0  2  0  0  0  0
    4.2868   -0.0000    0.0000 Na  0  0  0  0  0  0  0  2  0  0  0  0
  1  2  1  0        0
  2  3  1  0        0
  3  4  1  0        0
  4  5  1  0        0
  5  6  1  0        0
  6  7  1  0        0
  7  8  1  0        0
  8  9  1  0        0
  9 10  1  0        0
 10 11  1  0        0
 11 12  2  0        0
 11 13  2  0        0
 11 14  1  0        0
 14 15  1  0        0
M  END
>  <CAS RN>
13419619

>  <SMILES>
CCCCCCCCCCS(=O)(=O)O[Na]

>  <Measured or Estimated Log10(mmol/L)>
-0.129397976

$$$$

CDXL12

 17 20  0  0  0  0  0  0  0  0999 V2000
   -0.4849    0.6674    0.0000 S   0  0  0  0  0  0  0  2  0  0  0  0
   -1.2695    0.4125    0.0000 C   0  0  0  0  0  0  0  2  0  0  0  0
   -1.9840    0.8250    0.0000 C   0  0  0  0  0  0  0  2  0  0  0  0
   -2.6985    0.4125    0.0000 C   0  0  0  0  0  0  0  2  0  0  0  0
   -2.6985   -0.4125    0.0000 C   0  0  0  0  0  0  0  2  0  0  0  0
   -1.9840   -0.8250    0.0000 C   0  0  0  0  0  0  0  2  0  0  0  0
   -1.2695   -0.4125    0.0000 N   0  0  0  0  0  0  0  2  0  0  0  0
   -0.4849   -0.6674    0.0000 O   0  0  0  0  0  0  0  2  0  0  0  0
    0.0000   -0.0000    0.0000 Zn  0  0  0  0  0  0  0  2  0  0  0  0
    0.4849    0.6674    0.0000 S   0  0  0  0  0  0  0  2  0  0  0  0
    1.2695    0.4125    0.0000 C   0  0  0  0  0  0  0  2  0  0  0  0
    1.9840    0.8250    0.0000 C   0  0  0  0  0  0  0  2  0  0  0  0
    2.6985    0.4125    0.0000 C   0  0  0  0  0  0  0  2  0  0  0  0
    2.6985   -0.4125    0.0000 C   0  0  0  0  0  0  0  2  0  0  0  0
    1.9840   -0.8250    0.0000 C   0  0  0  0  0  0  0  2  0  0  0  0
    1.2695   -0.4125    0.0000 N   0  0  0  0  0  0  0  2  0  0  0  0
    0.4849   -0.6674    0.0000 O   0  0  0  0  0  0  0  2  0  0  0  0
  1  2  1  0        0
  2  3  1  0        0
  3  4  1  0        0
  4  5  1  0        0
  5  6  1  0        0
  6  7  1  0        0
  2  7  1  0        0
  7  8  2  0        0
  8  9  1  0        0
  1  9  1  0        0
  9 10  1  0        0
 10 11  1  0        0
 11 12  1  0        0
 12 13  1  0        0
 13 14  1  0        0
 14 15  1  0        0
 15 16  1  0        0
 11 16  1  0        0
 16 17  2  0        0
  9 17  1  0        0
M  END
>  <CAS RN>
13463417

>  <SMILES>
S1C2CCCCN2=O[Zn]12SC1CCCCN1=O2

>  <Measured or Estimated Log10(mmol/L)>
-3.578545144

$$$$

CDXL12

  7  6  0  0  0  0  0  0  0  0999 V2000
    1.4289   -0.4125    0.0000 Na  0  0  0  0  0  0  0  2  0  0  0  0
    0.7145   -0.8250    0.0000 O   0  0  0  0  0  0  0  2  0  0  0  0
    0.0000   -0.4125    0.0000 As  0  0  0  0  0  0  0  2  0  0  0  0
   -0.7145   -0.8250    0.0000 O   0  0  0  0  0  0  0  2  0  0  0  0
   -1.4289   -0.4125    0.0000 Na  0  0  0  0  0  0  0  2  0  0  0  0
    0.0000    0.4125    0.0000 O   0  0  0  0  0  0  0  2  0  0  0  0
   -0.7145    0.8250    0.0000 Na  0  0  0  0  0  0  0  2  0  0  0  0
  1  2  1  0        0
  2  3  1  0        0
  3  4  1  0        0
  4  5  1  0        0
  3  6  1  0        0
  6  7  1  0        0
M  END
>  <CAS RN>
13464374

>  <SMILES>
[Na]O[As](O[Na])O[Na]

>  <Measured or Estimated Log10(mmol/L)>
-1.885110071

$$$$

CDXL12

  6  6  0  0  0  0  0  0  0  0999 V2000
   -0.8109    0.0141    0.0000 O   0  0  0  0  0  0  0  2  0  0  0  0
    0.0141    0.0141    0.0000 S   0  0  0  0  0  0  0  2  0  0  0  0
    0.8109    0.2276    0.0000 O   0  0  0  0  0  0  0  2  0  0  0  0
    0.2276    0.8109    0.0000 O   0  0  0  0  0  0  0  2  0  0  0  0
    0.0141   -0.8109    0.0000 O   0  0  0  0  0  0  0  2  0  0  0  0
   -0.8109   -0.8109    0.0000 Be  0  0  0  0  0  0  0  2  0  0  0  0
  1  2  1  0        0
  2  3  2  0        0
  2  4  2  0        0
  2  5  1  0        0
  5  6  1  0        0
  1  6  1  0        0
M  END
>  <CAS RN>
13510491

>  <SMILES>
O1S(=O)(=O)O[Be]1

>  <Measured or Estimated Log10(mmol/L)>
-1.567023266

$$$$

CDXL12

 13 12  0  0  0  0  0  0  0  0999 V2000
   -0.3572   -0.2062    0.0000 Cr  0  0  0  0  0  0  0  2  0  0  0  0
    0.3572   -0.6188    0.0000 O   0  0  0  0  0  0  0  2  0  0  0  0
    1.0717   -0.2062    0.0000 N   0  0  0  0  0  0  0  2  0  0  0  0
    1.0717    0.6187    0.0000 O   0  0  0  0  0  0  0  2  0  0  0  0
    1.7862   -0.6188    0.0000 O   0  0  0  0  0  0  0  2  0  0  0  0
   -1.0717   -0.6188    0.0000 O   0  0  0  0  0  0  0  2  0  0  0  0
   -1.0717   -1.4438    0.0000 N   0  0  0  0  0  0  0  2  0  0  0  0
   -1.7862   -1.8563    0.0000 O   0  0  0  0  0  0  0  2  0  0  0  0
   -0.3572   -1.8563    0.0000 O   0  0  0  0  0  0  0  2  0  0  0  0
   -0.3572    0.6187    0.0000 O   0  0  0  0  0  0  0  2  0  0  0  0
   -1.0717    1.0313    0.0000 N   0  0  0  0  0  0  0  2  0  0  0  0
   -1.0717    1.8563    0.0000 O   0  0  0  0  0  0  0  2  0  0  0  0
   -1.7862    0.6188    0.0000 O   0  0  0  0  0  0  0  2  0  0  0  0
  1  2  1  0        0
  2  3  1  0        0
  3  4  2  0        0
  3  5  2  0        0
  1  6  1  0        0
  6  7  1  0        0
  7  8  2  0        0
  7  9  2  0        0
  1 10  1  0        0
 10 11  1  0        0
 11 12  2  0        0
 11 13  2  0        0
M  END
>  <CAS RN>
13548384

>  <SMILES>
[Cr](ON(=O)=O)(ON(=O)=O)ON(=O)=O

>  <Measured or Estimated Log10(mmol/L)>
-1.04768215

$$$$

CDXL12

 22 23  0  0  0  0  0  0  0  0999 V2000
   -2.5006    0.4125    0.0000 C   0  0  0  0  0  0  0  2  0  0  0  0
   -3.2151    0.8250    0.0000 C   0  0  0  0  0  0  0  2  0  0  0  0
   -3.9296    0.4125    0.0000 C   0  0  0  0  0  0  0  2  0  0  0  0
   -3.9296   -0.4125    0.0000 C   0  0  0  0  0  0  0  2  0  0  0  0
   -4.6441   -0.8250    0.0000 C   0  0  0  0  0  0  0  2  0  0  0  0
   -3.2151   -0.8250    0.0000 C   0  0  0  0  0  0  0  2  0  0  0  0
   -2.5006   -0.4125    0.0000 C   0  0  0  0  0  0  0  2  0  0  0  0
   -1.7862   -0.8250    0.0000 N   0  0  0  0  0  0  0  2  0  0  0  0
   -1.0717   -0.4125    0.0000 C   0  0  0  0  0  0  0  2  0  0  0  0
   -1.0717    0.4125    0.0000 O   0  0  0  0  0  0  0  2  0  0  0  0
   -0.3572   -0.8250    0.0000 O   0  0  0  0  0  0  0  2  0  0  0  0
    0.3572   -0.4125    0.0000 C   0  0  0  0  0  0  0  2  0  0  0  0
    0.3572    0.4125    0.0000 C   0  0  0  0  0  0  0  2  0  0  0  0
    1.0717    0.8250    0.0000 C   0  0  0  0  0  0  0  2  0  0  0  0
    1.7862    0.4125    0.0000 C   0  0  0  0  0  0  0  2  0  0  0  0
    1.7862   -0.4125    0.0000 C   0  0  0  0  0  0  0  2  0  0  0  0
    2.5006   -0.8250    0.0000 N   0  0  0  0  0  0  0  2  0  0  0  0
    3.2151   -0.4125    0.0000 C   0  0  0  0  0  0  0  2  0  0  0  0
    3.2151    0.4125    0.0000 O   0  0  0  0  0  0  0  2  0  0  0  0
    3.9296   -0.8250    0.0000 O   0  0  0  0  0  0  0  2  0  0  0  0
    4.6441   -0.4125    0.0000 C   0  0  0  0  0  0  0  2  0  0  0  0
    1.0717   -0.8250    0.0000 C   0  0  0  0  0  0  0  2  0  0  0  0
  1  2  4  0        0
  2  3  4  0        0
  3  4  4  0        0
  4  5  1  0        0
  4  6  4  0        0
  6  7  4  0        0
  1  7  4  0        0
  7  8  1  0        0
  8  9  1  0        0
  9 10  2  0        0
  9 11  1  0        0
 11 12  1  0        0
 12 13  4  0        0
 13 14  4  0        0
 14 15  4  0        0
 15 16  4  0        0
 16 17  1  0        0
 17 18  1  0        0
 18 19  2  0        0
 18 20  1  0        0
 20 21  1  0        0
 16 22  4  0        0
 12 22  4  0        0
M  END
>  <CAS RN>
13684634

>  <SMILES>
c1ccc(C)cc1NC(=O)Oc1cccc(NC(=O)OC)c1

>  <Measured or Estimated Log10(mmol/L)>
-1.97

$$$$

CDXL12

  5  4  0  0  0  0  0  0  0  0999 V2000
   -0.8250   -0.0000    0.0000 Na  0  0  0  0  0  0  0  2  0  0  0  0
    0.0000   -0.0000    0.0000 V   0  0  0  0  0  0  0  2  0  0  0  0
    0.0000   -0.8250    0.0000 O   0  0  0  0  0  0  0  2  0  0  0  0
    0.8250   -0.0000    0.0000 O   0  0  0  0  0  0  0  2  0  0  0  0
    0.0000    0.8250    0.0000 O   0  0  0  0  0  0  0  2  0  0  0  0
  1  2  1  0        0
  2  3  2  0        0
  2  4  2  0        0
  2  5  2  0        0
M  END
>  <CAS RN>
13718268

>  <SMILES>
[Na][V](=O)(=O)=O

>  <Measured or Estimated Log10(mmol/L)>
-1.495042405

$$$$

CDXL12

  6  5  0  0  0  0  0  0  0  0999 V2000
    0.4849   -0.7462    0.0000 Na  0  0  0  0  0  0  0  2  0  0  0  0
    0.0000   -0.0788    0.0000 B   0  0  0  0  0  0  0  2  0  0  0  0
    0.7846    0.1762    0.0000 F   0  0  0  0  0  0  0  2  0  0  0  0
    0.0000    0.7462    0.0000 F   0  0  0  0  0  0  0  2  0  0  0  0
   -0.7846    0.1762    0.0000 F   0  0  0  0  0  0  0  2  0  0  0  0
   -0.4849   -0.7462    0.0000 F   0  0  0  0  0  0  0  2  0  0  0  0
  1  2  1  0        0
  2  3  1  0        0
  2  4  1  0        0
  2  5  1  0        0
  2  6  1  0        0
M  END
>  <CAS RN>
13755298

>  <SMILES>
[Na]B(F)(F)(F)F

>  <Measured or Estimated Log10(mmol/L)>
1.637556605

$$$$

CDXL12

  2  1  0  0  0  0  0  0  0  0999 V2000
   -0.4125    0.0000    0.0000 Br  0  0  0  0  0  0  0  2  0  0  0  0
    0.4125    0.0000    0.0000 Cl  0  0  0  0  0  0  0  2  0  0  0  0
  1  2  1  0        0
M  END
>  <CAS RN>
13863417

>  <SMILES>
BrCl

>  <Measured or Estimated Log10(mmol/L)>
-2.210804428

$$$$

CDXL12

 11 11  0  0  0  0  0  0  0  0999 V2000
    0.0000   -0.8250    0.0000 C   0  0  0  0  0  0  0  2  0  0  0  0
   -0.7145   -1.2375    0.0000 C   0  0  0  0  0  0  0  2  0  0  0  0
   -1.4289   -0.8250    0.0000 C   0  0  0  0  0  0  0  2  0  0  0  0
   -1.4289   -0.0000    0.0000 C   0  0  0  0  0  0  0  2  0  0  0  0
   -2.1434    0.4125    0.0000 N   0  0  0  0  0  0  0  2  0  0  0  0
   -0.7145    0.4125    0.0000 C   0  0  0  0  0  0  0  2  0  0  0  0
    0.0000   -0.0000    0.0000 C   0  0  0  0  0  0  0  2  0  0  0  0
    0.7145    0.4125    0.0000 C   0  0  0  0  0  0  0  2  0  0  0  0
    0.7145    1.2375    0.0000 O   0  0  0  0  0  0  0  2  0  0  0  0
    1.4289    0.0000    0.0000 N   0  0  0  0  0  0  0  2  0  0  0  0
    2.1434    0.4125    0.0000 N   0  0  0  0  0  0  0  2  0  0  0  0
  1  2  4  0        0
  2  3  4  0        0
  3  4  4  0        0
  4  5  1  0        0
  4  6  4  0        0
  6  7  4  0        0
  1  7  4  0        0
  7  8  1  0        0
  8  9  2  0        0
  8 10  1  0        0
 10 11  1  0        0
M  END
>  <CAS RN>
14062341

>  <SMILES>
c1ccc(N)cc1C(=O)NN

>  <Measured or Estimated Log10(mmol/L)>
-1.817734896

$$$$

CDXL12

 10 11  0  0  0  0  0  0  0  0999 V2000
    1.2216    0.6674    0.0000 S   0  0  0  0  0  0  0  2  0  0  0  0
    1.7065   -0.0000    0.0000 C   0  0  0  0  0  0  0  2  0  0  0  0
    1.2216   -0.6674    0.0000 C   0  0  0  0  0  0  0  2  0  0  0  0
    0.4369   -0.4125    0.0000 C   0  0  0  0  0  0  0  2  0  0  0  0
    0.4369    0.4125    0.0000 C   0  0  0  0  0  0  0  2  0  0  0  0
   -0.2775    0.8250    0.0000 C   0  0  0  0  0  0  0  2  0  0  0  0
   -0.9920    0.4125    0.0000 C   0  0  0  0  0  0  0  2  0  0  0  0
   -0.9920   -0.4125    0.0000 C   0  0  0  0  0  0  0  2  0  0  0  0
   -1.7065   -0.8250    0.0000 C   0  0  0  0  0  0  0  2  0  0  0  0
   -0.2775   -0.8250    0.0000 C   0  0  0  0  0  0  0  2  0  0  0  0
  1  2  4  0        0
  2  3  4  0        0
  3  4  4  0        0
  4  5  4  0        0
  1  5  4  0        0
  5  6  4  0        0
  6  7  4  0        0
  7  8  4  0        0
  8  9  1  0        0
  8 10  4  0        0
  4 10  4  0        0
M  END
>  <CAS RN>
14315141

>  <SMILES>
s1ccc2c1ccc(C)c2

>  <Measured or Estimated Log10(mmol/L)>
-1.024799283

$$$$

CDXL12

 17 18  0  0  0  0  0  0  0  0999 V2000
    0.0000   -1.9917    0.0000 N   0  0  0  0  0  0  0  2  0  0  0  0
    0.7145   -2.4042    0.0000 C   0  0  0  0  0  0  0  2  0  0  0  0
    1.4289   -1.9917    0.0000 C   0  0  0  0  0  0  0  2  0  0  0  0
   -0.7145   -2.4042    0.0000 C   0  0  0  0  0  0  0  2  0  0  0  0
   -1.4289   -1.9917    0.0000 C   0  0  0  0  0  0  0  2  0  0  0  0
    0.0000   -1.1667    0.0000 C   0  0  0  0  0  0  0  2  0  0  0  0
   -0.5834   -0.5834    0.0000 S   0  0  0  0  0  0  0  2  0  0  0  0
    0.0000    0.0000    0.0000 Zn  0  0  0  0  0  0  0  2  0  0  0  0
    0.5834   -0.5834    0.0000 S   0  0  0  0  0  0  0  2  0  0  0  0
   -0.5834    0.5834    0.0000 S   0  0  0  0  0  0  0  2  0  0  0  0
    0.0000    1.1667    0.0000 C   0  0  0  0  0  0  0  2  0  0  0  0
    0.5834    0.5834    0.0000 S   0  0  0  0  0  0  0  2  0  0  0  0
    0.0000    1.9917    0.0000 N   0  0  0  0  0  0  0  2  0  0  0  0
   -0.7145    2.4042    0.0000 C   0  0  0  0  0  0  0  2  0  0  0  0
   -1.4289    1.9917    0.0000 C   0  0  0  0  0  0  0  2  0  0  0  0
    0.7145    2.4042    0.0000 C   0  0  0  0  0  0  0  2  0  0  0  0
    1.4289    1.9917    0.0000 C   0  0  0  0  0  0  0  2  0  0  0  0
  1  2  1  0        0
  2  3  1  0        0
  1  4  1  0        0
  4  5  1  0        0
  1  6  1  0        0
  6  7  2  0        0
  7  8  1  0        0
  8  9  1  0        0
  6  9  1  0        0
  8 10  1  0        0
 10 11  1  0        0
 11 12  2  0        0
  8 12  1  0        0
 11 13  1  0        0
 13 14  1  0        0
 14 15  1  0        0
 13 16  1  0        0
 16 17  1  0        0
M  END
>  <CAS RN>
14324551

>  <SMILES>
N(CC)(CC)C1=S[Zn]2(S1)SC(=S2)N(CC)CC

>  <Measured or Estimated Log10(mmol/L)>
-3.180801842

$$$$

CDXL12

 14 14  0  0  0  0  0  0  0  0999 V2000
    2.8579    0.4125    0.0000 C   0  0  0  0  0  0  0  2  0  0  0  0
    2.1434   -0.0000    0.0000 O   0  0  0  0  0  0  0  2  0  0  0  0
    1.4289    0.4125    0.0000 C   0  0  0  0  0  0  0  2  0  0  0  0
    1.4289    1.2375    0.0000 O   0  0  0  0  0  0  0  2  0  0  0  0
    0.7145   -0.0000    0.0000 C   0  0  0  0  0  0  0  2  0  0  0  0
    0.7145   -0.8250    0.0000 Cl  0  0  0  0  0  0  0  2  0  0  0  0
    0.0000    0.4125    0.0000 C   0  0  0  0  0  0  0  2  0  0  0  0
   -0.7145   -0.0000    0.0000 C   0  0  0  0  0  0  0  2  0  0  0  0
   -0.7145   -0.8250    0.0000 C   0  0  0  0  0  0  0  2  0  0  0  0
   -1.4289   -1.2375    0.0000 C   0  0  0  0  0  0  0  2  0  0  0  0
   -2.1434   -0.8250    0.0000 C   0  0  0  0  0  0  0  2  0  0  0  0
   -2.8579   -1.2375    0.0000 Cl  0  0  0  0  0  0  0  2  0  0  0  0
   -2.1434   -0.0000    0.0000 C   0  0  0  0  0  0  0  2  0  0  0  0
   -1.4289    0.4125    0.0000 C   0  0  0  0  0  0  0  2  0  0  0  0
  1  2  1  0        0
  2  3  1  0        0
  3  4  2  0        0
  3  5  1  0        0
  5  6  1  0        0
  5  7  1  0        0
  7  8  1  0        0
  8  9  4  0        0
  9 10  4  0        0
 10 11  4  0        0
 11 12  1  0        0
 11 13  4  0        0
 13 14  4  0        0
  8 14  4  0        0
M  END
>  <CAS RN>
14437173

>  <SMILES>
COC(=O)C(Cl)Cc1ccc(Cl)cc1

>  <Measured or Estimated Log10(mmol/L)>
-4.408489702

$$$$

CDXL12

 19 18  0  0  0  0  0  0  0  0999 V2000
   -0.3572   -0.0000    0.0000 Fe  0  0  0  0  0  0  0  2  0  0  0  0
   -1.0717   -0.4125    0.0000 S   0  0  0  0  0  0  0  2  0  0  0  0
   -1.0717   -1.2375    0.0000 C   0  0  0  0  0  0  0  2  0  0  0  0
   -0.3572   -1.6500    0.0000 S   0  0  0  0  0  0  0  2  0  0  0  0
   -1.7862   -1.6500    0.0000 N   0  0  0  0  0  0  0  2  0  0  0  0
   -2.5006   -1.2375    0.0000 C   0  0  0  0  0  0  0  2  0  0  0  0
   -1.7862   -2.4750    0.0000 C   0  0  0  0  0  0  0  2  0  0  0  0
    0.3572   -0.4125    0.0000 S   0  0  0  0  0  0  0  2  0  0  0  0
    1.0717   -0.0000    0.0000 C   0  0  0  0  0  0  0  2  0  0  0  0
    1.0717    0.8250    0.0000 S   0  0  0  0  0  0  0  2  0  0  0  0
    1.7862   -0.4125    0.0000 N   0  0  0  0  0  0  0  2  0  0  0  0
    2.5006   -0.0000    0.0000 C   0  0  0  0  0  0  0  2  0  0  0  0
    1.7862   -1.2375    0.0000 C   0  0  0  0  0  0  0  2  0  0  0  0
   -0.3572    0.8250    0.0000 S   0  0  0  0  0  0  0  2  0  0  0  0
   -1.0717    1.2375    0.0000 C   0  0  0  0  0  0  0  2  0  0  0  0
   -1.7862    0.8250    0.0000 S   0  0  0  0  0  0  0  2  0  0  0  0
   -1.0717    2.0625    0.0000 N   0  0  0  0  0  0  0  2  0  0  0  0
   -0.3572    2.4750    0.0000 C   0  0  0  0  0  0  0  2  0  0  0  0
   -1.7862    2.4750    0.0000 C   0  0  0  0  0  0  0  2  0  0  0  0
  1  2  1  0        0
  2  3  1  0        0
  3  4  2  0        0
  3  5  1  0        0
  5  6  1  0        0
  5  7  1  0        0
  1  8  1  0        0
  8  9  1  0        0
  9 10  2  0        0
  9 11  1  0        0
 11 12  1  0        0
 11 13  1  0        0
  1 14  1  0        0
 14 15  1  0        0
 15 16  2  0        0
 15 17  1  0        0
 17 18  1  0        0
 17 19  1  0        0
M  END
>  <CAS RN>
14484641

>  <SMILES>
[Fe](SC(=S)N(C)C)(SC(=S)N(C)C)SC(=S)N(C)C

>  <Measured or Estimated Log10(mmol/L)>
-3.665367283

$$$$

CDXL12

  6  6  0  0  0  0  0  0  0  0999 V2000
    0.0202   -0.6348    0.0000 O   0  0  0  0  0  0  0  2  0  0  0  0
   -0.8048   -0.6348    0.0000 N   0  0  0  0  0  0  0  2  0  0  0  0
   -1.0597    0.1498    0.0000 C   0  0  0  0  0  0  0  2  0  0  0  0
   -0.3923    0.6348    0.0000 C   0  0  0  0  0  0  0  2  0  0  0  0
    0.2751    0.1498    0.0000 C   0  0  0  0  0  0  0  2  0  0  0  0
    1.0597    0.4048    0.0000 N   0  0  0  0  0  0  0  2  0  0  0  0
  1  2  4  0        0
  2  3  4  0        0
  3  4  4  0        0
  4  5  4  0        0
  1  5  4  0        0
  5  6  1  0        0
M  END
>  <CAS RN>
14678058

>  <SMILES>
o1nccc1N

>  <Measured or Estimated Log10(mmol/L)>
-2.662231277

$$$$

CDXL12

 19 21  0  0  0  0  0  0  0  0999 V2000
    2.7782    0.2062    0.0000 C   0  0  0  0  0  0  0  2  0  0  0  0
    2.2933   -0.4612    0.0000 O   0  0  0  0  0  0  0  2  0  0  0  0
    1.5086   -0.2062    0.0000 C   0  0  0  0  0  0  0  2  0  0  0  0
    0.7942   -0.6188    0.0000 C   0  0  0  0  0  0  0  2  0  0  0  0
    0.0797   -0.2062    0.0000 C   0  0  0  0  0  0  0  2  0  0  0  0
   -0.6348   -0.6188    0.0000 N   0  0  0  0  0  0  0  2  0  0  0  0
   -0.6348   -1.4438    0.0000 C   0  0  0  0  0  0  0  2  0  0  0  0
   -1.3492   -1.8563    0.0000 C   0  0  0  0  0  0  0  2  0  0  0  0
   -1.3492   -0.2062    0.0000 C   0  0  0  0  0  0  0  2  0  0  0  0
   -1.3492    0.6188    0.0000 C   0  0  0  0  0  0  0  2  0  0  0  0
   -2.0637    1.0313    0.0000 C   0  0  0  0  0  0  0  2  0  0  0  0
   -2.0637    1.8563    0.0000 O   0  0  0  0  0  0  0  2  0  0  0  0
   -2.7782    0.6188    0.0000 O   0  0  0  0  0  0  0  2  0  0  0  0
   -0.6348    1.0313    0.0000 C   0  0  0  0  0  0  0  2  0  0  0  0
   -0.6348    1.8563    0.0000 O   0  0  0  0  0  0  0  2  0  0  0  0
    0.0797    0.6188    0.0000 C   0  0  0  0  0  0  0  2  0  0  0  0
    0.7942    1.0312    0.0000 C   0  0  0  0  0  0  0  2  0  0  0  0
    1.5086    0.6188    0.0000 C   0  0  0  0  0  0  0  2  0  0  0  0
    2.2933    0.8737    0.0000 O   0  0  0  0  0  0  0  2  0  0  0  0
  1  2  1  0        0
  2  3  1  0        0
  3  4  4  0        0
  4  5  4  0        0
  5  6  1  0        0
  6  7  1  0        0
  7  8  1  0        0
  6  9  1  0        0
  9 10  2  0        0
 10 11  1  0        0
 11 12  2  0        0
 11 13  1  0        0
 10 14  1  0        0
 14 15  2  0        0
 14 16  1  0        0
  5 16  4  0        0
 16 17  4  0        0
 17 18  4  0        0
  3 18  4  0        0
 18 19  1  0        0
  1 19  1  0        0
M  END
>  <CAS RN>
14698294

>  <SMILES>
C1Oc2cc3N(CC)\C=C(\C(=O)O)/C(=O)c3cc2O1

>  <Measured or Estimated Log10(mmol/L)>
-1.754270196

$$$$

CDXL12

 12 12  0  0  0  0  0  0  0  0999 V2000
    2.8579    0.8250    0.0000 O   0  0  0  0  0  0  0  2  0  0  0  0
    2.1434    0.4125    0.0000 C   0  0  0  0  0  0  0  2  0  0  0  0
    2.1434   -0.4125    0.0000 C   0  0  0  0  0  0  0  2  0  0  0  0
    1.4289   -0.8250    0.0000 C   0  0  0  0  0  0  0  2  0  0  0  0
    0.7145   -0.4125    0.0000 C   0  0  0  0  0  0  0  2  0  0  0  0
    0.7145    0.4125    0.0000 C   0  0  0  0  0  0  0  2  0  0  0  0
    1.4289    0.8250    0.0000 C   0  0  0  0  0  0  0  2  0  0  0  0
    0.0000   -0.8250    0.0000 C   0  0  0  0  0  0  0  2  0  0  0  0
   -0.7145   -0.4125    0.0000 C   0  0  0  0  0  0  0  2  0  0  0  0
   -1.4289   -0.8250    0.0000 C   0  0  0  0  0  0  0  2  0  0  0  0
   -2.1434   -0.4125    0.0000 C   0  0  0  0  0  0  0  2  0  0  0  0
   -2.8579   -0.8250    0.0000 C   0  0  0  0  0  0  0  2  0  0  0  0
  1  2  1  0        0
  2  3  4  0        0
  3  4  4  0        0
  4  5  4  0        0
  5  6  4  0        0
  6  7  4  0        0
  2  7  4  0        0
  5  8  1  0        0
  8  9  1  0        0
  9 10  1  0        0
 10 11  1  0        0
 11 12  1  0        0
M  END
>  <CAS RN>
14938353

>  <SMILES>
Oc1ccc(cc1)CCCCC

>  <Measured or Estimated Log10(mmol/L)>
-2.091648438

$$$$

CDXL12

 18 19  0  0  0  0  0  0  0  0999 V2000
    1.4289    2.0308    0.0000 O   0  0  0  0  0  0  0  2  0  0  0  0
    1.4289    1.2058    0.0000 N   0  0  0  0  0  0  0  2  0  0  0  0
    2.1434    0.7933    0.0000 O   0  0  0  0  0  0  0  2  0  0  0  0
    0.7145    0.7933    0.0000 C   0  0  0  0  0  0  0  2  0  0  0  0
    0.7145   -0.0317    0.0000 C   0  0  0  0  0  0  0  2  0  0  0  0
    0.6991   -0.8360    0.0000 O   0  0  0  0  0  0  0  2  0  0  0  0
    0.0000   -1.2337    0.0000 Pb  0  0  0  0  0  0  0  2  0  0  0  0
   -0.6991   -0.8360    0.0000 O   0  0  0  0  0  0  0  2  0  0  0  0
   -0.7145   -0.0317    0.0000 C   0  0  0  0  0  0  0  2  0  0  0  0
    0.0000   -0.4442    0.0000 C   0  0  0  0  0  0  0  2  0  0  0  0
   -0.1862   -1.5005    0.0000 N   0  0  0  0  0  0  0  2  0  0  0  0
   -0.9615   -1.7826    0.0000 O   0  0  0  0  0  0  0  2  0  0  0  0
    0.4457   -2.0308    0.0000 O   0  0  0  0  0  0  0  2  0  0  0  0
   -0.7145    0.7933    0.0000 C   0  0  0  0  0  0  0  2  0  0  0  0
   -1.4289    1.2058    0.0000 N   0  0  0  0  0  0  0  2  0  0  0  0
   -1.4289    2.0308    0.0000 O   0  0  0  0  0  0  0  2  0  0  0  0
   -2.1434    0.7933    0.0000 O   0  0  0  0  0  0  0  2  0  0  0  0
    0.0000    1.2058    0.0000 C   0  0  0  0  0  0  0  2  0  0  0  0
  1  2  2  0        0
  2  3  2  0        0
  2  4  1  0        0
  4  5  4  0        0
  5  6  1  0        0
  6  7  1  0        0
  7  8  1  0        0
  8  9  1  0        0
  9 10  4  0        0
  5 10  4  0        0
 10 11  1  0        0
 11 12  2  0        0
 11 13  2  0        0
  9 14  4  0        0
 14 15  1  0        0
 15 16  2  0        0
 15 17  2  0        0
 14 18  4  0        0
  4 18  4  0        0
M  END
>  <CAS RN>
15245440

>  <SMILES>
O=N(=O)c1c2O[Pb]Oc(c2N(=O)=O)c(N(=O)=O)c1

>  <Measured or Estimated Log10(mmol/L)>
0.550630574

$$$$

CDXL12

 14 13  0  0  0  0  0  0  0  0999 V2000
    0.0000   -0.8250    0.0000 N   0  0  0  0  0  0  0  2  0  0  0  0
    0.7145   -1.2375    0.0000 C   0  0  0  0  0  0  0  2  0  0  0  0
   -0.7145   -1.2375    0.0000 C   0  0  0  0  0  0  0  2  0  0  0  0
    0.0000    0.0000    0.0000 C   0  0  0  0  0  0  0  2  0  0  0  0
    0.7145    0.4125    0.0000 C   0  0  0  0  0  0  0  2  0  0  0  0
    1.4289    0.0000    0.0000 S   0  0  0  0  0  0  0  2  0  0  0  0
    2.1434    0.4125    0.0000 C   0  0  0  0  0  0  0  2  0  0  0  0
    2.1434    1.2375    0.0000 O   0  0  0  0  0  0  0  2  0  0  0  0
    2.8579    0.0000    0.0000 N   0  0  0  0  0  0  0  2  0  0  0  0
   -0.7145    0.4125    0.0000 C   0  0  0  0  0  0  0  2  0  0  0  0
   -1.4289    0.0000    0.0000 S   0  0  0  0  0  0  0  2  0  0  0  0
   -2.1434    0.4125    0.0000 C   0  0  0  0  0  0  0  2  0  0  0  0
   -2.1434    1.2375    0.0000 O   0  0  0  0  0  0  0  2  0  0  0  0
   -2.8579    0.0000    0.0000 N   0  0  0  0  0  0  0  2  0  0  0  0
  1  2  1  0        0
  1  3  1  0        0
  1  4  1  0        0
  4  5  1  0        0
  5  6  1  0        0
  6  7  1  0        0
  7  8  2  0        0
  7  9  1  0        0
  4 10  1  0        0
 10 11  1  0        0
 11 12  1  0        0
 12 13  2  0        0
 12 14  1  0        0
M  END
>  <CAS RN>
15263533

>  <SMILES>
N(C)(C)C(CSC(=O)N)CSC(=O)N

>  <Measured or Estimated Log10(mmol/L)>
-4.375378257

$$$$

CDXL12

 15 16  0  0  0  0  0  0  0  0999 V2000
   -1.7862   -0.2062    0.0000 C   0  0  0  0  0  0  0  2  0  0  0  0
   -2.5006    0.2062    0.0000 C   0  0  0  0  0  0  0  2  0  0  0  0
   -2.5006    1.0312    0.0000 C   0  0  0  0  0  0  0  2  0  0  0  0
   -1.7862    1.4437    0.0000 C   0  0  0  0  0  0  0  2  0  0  0  0
   -1.0717    1.0312    0.0000 C   0  0  0  0  0  0  0  2  0  0  0  0
   -0.3572    1.4437    0.0000 O   0  0  0  0  0  0  0  2  0  0  0  0
   -1.0717    0.2062    0.0000 C   0  0  0  0  0  0  0  2  0  0  0  0
   -0.3572   -0.2062    0.0000 C   0  0  0  0  0  0  0  2  0  0  0  0
    0.3572    0.2062    0.0000 C   0  0  0  0  0  0  0  2  0  0  0  0
    1.0717   -0.2062    0.0000 C   0  0  0  0  0  0  0  2  0  0  0  0
    1.7862    0.2062    0.0000 O   0  0  0  0  0  0  0  2  0  0  0  0
    2.5006   -0.2062    0.0000 C   0  0  0  0  0  0  0  2  0  0  0  0
    1.0717   -1.0312    0.0000 C   0  0  0  0  0  0  0  2  0  0  0  0
    0.3572   -1.4437    0.0000 C   0  0  0  0  0  0  0  2  0  0  0  0
   -0.3572   -1.0312    0.0000 C   0  0  0  0  0  0  0  2  0  0  0  0
  1  2  1  0        0
  2  3  1  0        0
  3  4  1  0        0
  4  5  1  0        0
  5  6  2  0        0
  5  7  1  0        0
  1  7  1  0        0
  7  8  1  0        0
  8  9  4  0        0
  9 10  4  0        0
 10 11  1  0        0
 11 12  1  0        0
 10 13  4  0        0
 13 14  4  0        0
 14 15  4  0        0
  8 15  4  0        0
M  END
>  <CAS RN>
15547894

>  <SMILES>
C1CCCC(=O)C1c1cc(OC)ccc1

>  <Measured or Estimated Log10(mmol/L)>
-0.534956192

$$$$

CDXL12

 21 25  0  0  0  0  0  0  0  0999 V2000
    0.5039    0.9973    0.0000 O   0  0  0  0  0  0  0  2  0  0  0  0
    0.6188    0.1803    0.0000 C   0  0  0  0  0  0  0  2  0  0  0  0
    1.0252    0.1101    0.0000 C   0  0  0  0  0  0  0  2  0  0  0  0
    1.1971   -0.2648    0.0000 N   0  0  0  0  0  0  0  2  0  0  0  0
    1.6820   -0.9323    0.0000 C   0  0  0  0  0  0  0  2  0  0  0  0
    1.1971   -1.5997    0.0000 C   0  0  0  0  0  0  0  2  0  0  0  0
    0.4125   -1.3448    0.0000 N   0  0  0  0  0  0  0  2  0  0  0  0
    0.0028   -1.2972    0.0000 C   0  0  0  0  0  0  0  2  0  0  0  0
   -0.1896   -0.9323    0.0000 C   0  0  0  0  0  0  0  2  0  0  0  0
   -1.0020   -1.0755    0.0000 O   0  0  0  0  0  0  0  2  0  0  0  0
    0.0028   -0.5674    0.0000 O   0  0  0  0  0  0  0  2  0  0  0  0
    0.4125   -0.5198    0.0000 Fe  0  0  0  0  0  0  0  2  0  0  0  0
    0.3311   -0.1154    0.0000 O   0  0  0  0  0  0  0  2  0  0  0  0
   -0.0724    0.1477    0.0000 O   0  0  0  0  0  0  0  2  0  0  0  0
    0.4125    0.8151    0.0000 C   0  0  0  0  0  0  0  2  0  0  0  0
    0.1576    1.5997    0.0000 O   0  0  0  0  0  0  0  2  0  0  0  0
    1.1971    0.5602    0.0000 C   0  0  0  0  0  0  0  2  0  0  0  0
   -0.3721   -0.2648    0.0000 O   0  0  0  0  0  0  0  2  0  0  0  0
   -0.8570   -0.9323    0.0000 C   0  0  0  0  0  0  0  2  0  0  0  0
   -1.6820   -0.9323    0.0000 O   0  0  0  0  0  0  0  2  0  0  0  0
   -0.3721   -1.5997    0.0000 C   0  0  0  0  0  0  0  2  0  0  0  0
  1  2  2  0        0
  2  3  1  0        0
  3  4  1  0        0
  4  5  1  0        0
  5  6  1  0        0
  6  7  1  0        0
  7  8  1  0        0
  8  9  1  0        0
  9 10  2  0        0
  9 11  1  0        0
 11 12  1  0        0
  4 12  1  0        0
  7 12  1  0        0
 12 13  1  0        0
  2 13  1  0        0
 12 14  1  0        0
 14 15  1  0        0
 15 16  2  0        0
 15 17  1  0        0
  4 17  1  0        0
 12 18  1  0        0
 18 19  1  0        0
 19 20  2  0        0
 19 21  1  0        0
  7 21  1  0        0
M  END
>  <CAS RN>
15708415

>  <SMILES>
O=C1CN23CCN45CC(=O)O[Fe]24(O1)(OC(=O)C3)OC(=O)C5

>  <Measured or Estimated Log10(mmol/L)>
-0.539530798

$$$$

CDXL12

 15 16  0  0  0  0  0  0  0  0999 V2000
    2.1434   -1.4438    0.0000 Cl  0  0  0  0  0  0  0  2  0  0  0  0
    1.4289   -1.0313    0.0000 C   0  0  0  0  0  0  0  2  0  0  0  0
    0.7145   -1.4437    0.0000 C   0  0  0  0  0  0  0  2  0  0  0  0
    0.0000   -1.0313    0.0000 C   0  0  0  0  0  0  0  2  0  0  0  0
   -0.7145   -1.4437    0.0000 Cl  0  0  0  0  0  0  0  2  0  0  0  0
    0.0000   -0.2062    0.0000 C   0  0  0  0  0  0  0  2  0  0  0  0
    0.7145    0.2062    0.0000 C   0  0  0  0  0  0  0  2  0  0  0  0
    1.4289   -0.2062    0.0000 C   0  0  0  0  0  0  0  2  0  0  0  0
    2.1434    0.2062    0.0000 Cl  0  0  0  0  0  0  0  2  0  0  0  0
   -0.7145    0.2062    0.0000 C   0  0  0  0  0  0  0  2  0  0  0  0
   -1.4289   -0.2062    0.0000 C   0  0  0  0  0  0  0  2  0  0  0  0
   -2.1434    0.2062    0.0000 C   0  0  0  0  0  0  0  2  0  0  0  0
   -2.1434    1.0313    0.0000 C   0  0  0  0  0  0  0  2  0  0  0  0
   -1.4289    1.4438    0.0000 C   0  0  0  0  0  0  0  2  0  0  0  0
   -0.7145    1.0313    0.0000 C   0  0  0  0  0  0  0  2  0  0  0  0
  1  2  1  0        0
  2  3  4  0        0
  3  4  4  0        0
  4  5  1  0        0
  4  6  4  0        0
  6  7  4  0        0
  7  8  4  0        0
  2  8  4  0        0
  8  9  1  0        0
  6 10  1  0        0
 10 11  4  0        0
 11 12  4  0        0
 12 13  4  0        0
 13 14  4  0        0
 14 15  4  0        0
 10 15  4  0        0
M  END
>  <CAS RN>
15862074

>  <SMILES>
Clc1cc(Cl)c(cc1Cl)c1ccccc1

>  <Measured or Estimated Log10(mmol/L)>
-2.640004484

$$$$

CDXL12

 10 10  0  0  0  0  0  0  0  0999 V2000
   -1.4289   -0.4125    0.0000 O   0  0  0  0  0  0  0  2  0  0  0  0
   -0.7145   -0.0000    0.0000 C   0  0  0  0  0  0  0  2  0  0  0  0
   -0.7145    0.8250    0.0000 C   0  0  0  0  0  0  0  2  0  0  0  0
    0.0000    1.2375    0.0000 C   0  0  0  0  0  0  0  2  0  0  0  0
    0.7145    0.8250    0.0000 C   0  0  0  0  0  0  0  2  0  0  0  0
    1.4289    1.2375    0.0000 Cl  0  0  0  0  0  0  0  2  0  0  0  0
    0.7145   -0.0000    0.0000 C   0  0  0  0  0  0  0  2  0  0  0  0
    1.4289   -0.4125    0.0000 Cl  0  0  0  0  0  0  0  2  0  0  0  0
    0.0000   -0.4125    0.0000 C   0  0  0  0  0  0  0  2  0  0  0  0
    0.0000   -1.2375    0.0000 Cl  0  0  0  0  0  0  0  2  0  0  0  0
  1  2  1  0        0
  2  3  4  0        0
  3  4  4  0        0
  4  5  4  0        0
  5  6  1  0        0
  5  7  4  0        0
  7  8  1  0        0
  7  9  4  0        0
  2  9  4  0        0
  9 10  1  0        0
M  END
>  <CAS RN>
15950660

>  <SMILES>
Oc1ccc(Cl)c(Cl)c1Cl

>  <Measured or Estimated Log10(mmol/L)>
-1.95

$$$$

CDXL12

 11 11  0  0  0  0  0  0  0  0999 V2000
    0.3572   -1.2375    0.0000 N   0  0  0  0  0  0  0  2  0  0  0  0
   -0.3572   -0.8250    0.0000 C   0  0  0  0  0  0  0  2  0  0  0  0
   -1.0717   -1.2375    0.0000 Cl  0  0  0  0  0  0  0  2  0  0  0  0
   -0.3572    0.0000    0.0000 C   0  0  0  0  0  0  0  2  0  0  0  0
   -1.0717    0.4125    0.0000 N   0  0  0  0  0  0  0  2  0  0  0  0
   -1.0717    1.2375    0.0000 O   0  0  0  0  0  0  0  2  0  0  0  0
   -1.7862    0.0000    0.0000 O   0  0  0  0  0  0  0  2  0  0  0  0
    0.3572    0.4125    0.0000 C   0  0  0  0  0  0  0  2  0  0  0  0
    1.0717   -0.0000    0.0000 C   0  0  0  0  0  0  0  2  0  0  0  0
    1.0717   -0.8250    0.0000 C   0  0  0  0  0  0  0  2  0  0  0  0
    1.7862   -1.2375    0.0000 Cl  0  0  0  0  0  0  0  2  0  0  0  0
  1  2  4  0        0
  2  3  1  0        0
  2  4  4  0        0
  4  5  1  0        0
  5  6  2  0        0
  5  7  2  0        0
  4  8  4  0        0
  8  9  4  0        0
  9 10  4  0        0
  1 10  4  0        0
 10 11  1  0        0
M  END
>  <CAS RN>
16013857

>  <SMILES>
n1c(Cl)c(N(=O)=O)ccc1Cl

>  <Measured or Estimated Log10(mmol/L)>
-3.022899573

$$$$

CDXL12

 13 12  0  0  0  0  0  0  0  0999 V2000
    0.0000    0.2062    0.0000 Zn  0  0  0  0  0  0  0  2  0  0  0  0
   -0.7145   -0.2062    0.0000 O   0  0  0  0  0  0  0  2  0  0  0  0
   -1.4289    0.2062    0.0000 C   0  0  0  0  0  0  0  2  0  0  0  0
   -1.4289    1.0312    0.0000 O   0  0  0  0  0  0  0  2  0  0  0  0
   -2.1434   -0.2062    0.0000 C   0  0  0  0  0  0  0  2  0  0  0  0
   -2.1434   -1.0312    0.0000 O   0  0  0  0  0  0  0  2  0  0  0  0
   -2.8579    0.2063    0.0000 C   0  0  0  0  0  0  0  2  0  0  0  0
    0.7145   -0.2062    0.0000 O   0  0  0  0  0  0  0  2  0  0  0  0
    1.4289    0.2062    0.0000 C   0  0  0  0  0  0  0  2  0  0  0  0
    1.4289    1.0312    0.0000 O   0  0  0  0  0  0  0  2  0  0  0  0
    2.1434   -0.2062    0.0000 C   0  0  0  0  0  0  0  2  0  0  0  0
    2.1434   -1.0312    0.0000 O   0  0  0  0  0  0  0  2  0  0  0  0
    2.8579    0.2062    0.0000 C   0  0  0  0  0  0  0  2  0  0  0  0
  1  2  1  0        0
  2  3  1  0        0
  3  4  2  0        0
  3  5  1  0        0
  5  6  1  0        0
  5  7  1  0        0
  1  8  1  0        0
  8  9  1  0        0
  9 10  2  0        0
  9 11  1  0        0
 11 12  1  0        0
 11 13  1  0        0
M  END
>  <CAS RN>
16039535

>  <SMILES>
[Zn](OC(=O)C(O)C)OC(=O)C(O)C

>  <Measured or Estimated Log10(mmol/L)>
-1.437126792

$$$$

CDXL12

  9  9  0  0  0  0  0  0  0  0999 V2000
   -0.7145    0.8250    0.0000 C   0  0  0  0  0  0  0  2  0  0  0  0
    0.0000    0.4125    0.0000 C   0  0  0  0  0  0  0  2  0  0  0  0
    0.7145    0.8250    0.0000 Cl  0  0  0  0  0  0  0  2  0  0  0  0
    0.0000   -0.4125    0.0000 C   0  0  0  0  0  0  0  2  0  0  0  0
    0.7145   -0.8250    0.0000 C   0  0  0  0  0  0  0  2  0  0  0  0
    1.4289   -0.4125    0.0000 O   0  0  0  0  0  0  0  2  0  0  0  0
   -0.7145   -0.8250    0.0000 C   0  0  0  0  0  0  0  2  0  0  0  0
   -1.4289   -0.4125    0.0000 C   0  0  0  0  0  0  0  2  0  0  0  0
   -1.4289    0.4125    0.0000 C   0  0  0  0  0  0  0  2  0  0  0  0
  1  2  4  0        0
  2  3  1  0        0
  2  4  4  0        0
  4  5  1  0        0
  5  6  1  0        0
  4  7  4  0        0
  7  8  4  0        0
  8  9  4  0        0
  1  9  4  0        0
M  END
>  <CAS RN>
17849386

>  <SMILES>
c1c(Cl)c(CO)ccc1

>  <Measured or Estimated Log10(mmol/L)>
-0.394405986

$$$$

CDXL12

 16 16  0  0  0  0  0  0  0  0999 V2000
    2.5006   -0.0000    0.0000 C   0  0  0  0  0  0  0  2  0  0  0  0
    1.7862   -0.4125    0.0000 O   0  0  0  0  0  0  0  2  0  0  0  0
    1.0717    0.0000    0.0000 P   0  0  0  0  0  0  0  2  0  0  0  0
    1.0717    0.8250    0.0000 S   0  0  0  0  0  0  0  2  0  0  0  0
    1.0717   -0.8250    0.0000 O   0  0  0  0  0  0  0  2  0  0  0  0
    1.7862   -1.2375    0.0000 C   0  0  0  0  0  0  0  2  0  0  0  0
    0.3572   -0.4125    0.0000 O   0  0  0  0  0  0  0  2  0  0  0  0
   -0.3572   -0.0000    0.0000 C   0  0  0  0  0  0  0  2  0  0  0  0
   -1.0717   -0.4125    0.0000 C   0  0  0  0  0  0  0  2  0  0  0  0
   -1.7862    0.0000    0.0000 C   0  0  0  0  0  0  0  2  0  0  0  0
   -2.5006   -0.4125    0.0000 Cl  0  0  0  0  0  0  0  2  0  0  0  0
   -1.7862    0.8250    0.0000 C   0  0  0  0  0  0  0  2  0  0  0  0
   -2.5006    1.2375    0.0000 I   0  0  0  0  0  0  0  2  0  0  0  0
   -1.0717    1.2375    0.0000 C   0  0  0  0  0  0  0  2  0  0  0  0
   -0.3572    0.8250    0.0000 C   0  0  0  0  0  0  0  2  0  0  0  0
    0.3572    1.2375    0.0000 Cl  0  0  0  0  0  0  0  2  0  0  0  0
  1  2  1  0        0
  2  3  1  0        0
  3  4  2  0        0
  3  5  1  0        0
  5  6  1  0        0
  3  7  1  0        0
  7  8  1  0        0
  8  9  4  0        0
  9 10  4  0        0
 10 11  1  0        0
 10 12  4  0        0
 12 13  1  0        0
 12 14  4  0        0
 14 15  4  0        0
  8 15  4  0        0
 15 16  1  0        0
M  END
>  <CAS RN>
18181709

>  <SMILES>
COP(=S)(OC)Oc1cc(Cl)c(I)cc1Cl

>  <Measured or Estimated Log10(mmol/L)>
-3.85975679

$$$$

CDXL12

 15 14  0  0  0  0  0  0  0  0999 V2000
   -4.2868   -0.6188    0.0000 C   0  0  0  0  0  0  0  2  0  0  0  0
   -3.5724   -0.2063    0.0000 C   0  0  0  0  0  0  0  2  0  0  0  0
   -2.8579   -0.6188    0.0000 C   0  0  0  0  0  0  0  2  0  0  0  0
   -2.1434   -0.2063    0.0000 C   0  0  0  0  0  0  0  2  0  0  0  0
   -1.4289   -0.6188    0.0000 C   0  0  0  0  0  0  0  2  0  0  0  0
   -0.7145   -0.2063    0.0000 C   0  0  0  0  0  0  0  2  0  0  0  0
    0.0000   -0.6188    0.0000 C   0  0  0  0  0  0  0  2  0  0  0  0
    0.7145   -0.2063    0.0000 C   0  0  0  0  0  0  0  2  0  0  0  0
    1.4289   -0.6188    0.0000 C   0  0  0  0  0  0  0  2  0  0  0  0
    2.1434   -0.2063    0.0000 C   0  0  0  0  0  0  0  2  0  0  0  0
    2.8579   -0.6188    0.0000 O   0  0  0  0  0  0  0  2  0  0  0  0
    3.5724   -0.2062    0.0000 Si  0  0  0  0  0  0  0  2  0  0  0  0
    4.2868    0.2062    0.0000 C   0  0  0  0  0  0  0  2  0  0  0  0
    3.5724    0.6188    0.0000 C   0  0  0  0  0  0  0  2  0  0  0  0
    4.2868   -0.6188    0.0000 C   0  0  0  0  0  0  0  2  0  0  0  0
  1  2  1  0        0
  2  3  1  0        0
  3  4  1  0        0
  4  5  1  0        0
  5  6  1  0        0
  6  7  1  0        0
  7  8  1  0        0
  8  9  1  0        0
  9 10  1  0        0
 10 11  1  0        0
 11 12  1  0        0
 12 13  1  0        0
 12 14  1  0        0
 12 15  1  0        0
M  END
>  <CAS RN>
18402103

>  <SMILES>
CCCCCCCCCCO[Si](C)(C)C

>  <Measured or Estimated Log10(mmol/L)>
-1.646607282

$$$$

CDXL12

 22 22  0  0  0  0  0  0  0  0999 V2000
    1.7862   -0.6187    0.0000 C   0  0  0  0  0  0  0  2  0  0  0  0
    1.7862    0.2063    0.0000 C   0  0  0  0  0  0  0  2  0  0  0  0
    2.5006    0.6188    0.0000 C   0  0  0  0  0  0  0  2  0  0  0  0
    2.5006    1.4438    0.0000 S   0  0  0  0  0  0  0  2  0  0  0  0
    3.3256    1.4438    0.0000 O   0  0  0  0  0  0  0  2  0  0  0  0
    1.6756    1.4438    0.0000 O   0  0  0  0  0  0  0  2  0  0  0  0
    2.5006    2.2687    0.0000 O   0  0  0  0  0  0  0  2  0  0  0  0
    3.2151    0.2063    0.0000 C   0  0  0  0  0  0  0  2  0  0  0  0
    3.2151   -0.6187    0.0000 C   0  0  0  0  0  0  0  2  0  0  0  0
    2.5006   -1.0312    0.0000 C   0  0  0  0  0  0  0  2  0  0  0  0
    2.5006   -1.8562    0.0000 C   0  0  0  0  0  0  0  2  0  0  0  0
    1.7862   -2.2687    0.0000 C   0  0  0  0  0  0  0  2  0  0  0  0
    1.0717   -1.8562    0.0000 C   0  0  0  0  0  0  0  2  0  0  0  0
    0.3572   -2.2687    0.0000 C   0  0  0  0  0  0  0  2  0  0  0  0
   -0.3572   -1.8562    0.0000 C   0  0  0  0  0  0  0  2  0  0  0  0
   -1.0717   -2.2687    0.0000 C   0  0  0  0  0  0  0  2  0  0  0  0
   -1.7862   -1.8562    0.0000 C   0  0  0  0  0  0  0  2  0  0  0  0
   -2.5006   -2.2687    0.0000 C   0  0  0  0  0  0  0  2  0  0  0  0
   -3.2151   -1.8562    0.0000 C   0  0  0  0  0  0  0  2  0  0  0  0
   -3.9296   -2.2687    0.0000 C   0  0  0  0  0  0  0  2  0  0  0  0
    3.2151   -2.2687    0.0000 C   0  0  0  0  0  0  0  2  0  0  0  0
    3.9296   -1.8562    0.0000 C   0  0  0  0  0  0  0  2  0  0  0  0
  1  2  4  0        0
  2  3  4  0        0
  3  4  1  0        0
  4  5  2  0        0
  4  6  2  0        0
  4  7  1  0        0
  3  8  4  0        0
  8  9  4  0        0
  9 10  4  0        0
  1 10  4  0        0
 10 11  1  0        0
 11 12  1  0        0
 12 13  1  0        0
 13 14  1  0        0
 14 15  1  0        0
 15 16  1  0        0
 16 17  1  0        0
 17 18  1  0        0
 18 19  1  0        0
 19 20  1  0        0
 11 21  1  0        0
 21 22  1  0        0
M  END
>  <CAS RN>
18777543

>  <SMILES>
c1cc(S(=O)(=O)O)ccc1C(CCCCCCCCC)CC

>  <Measured or Estimated Log10(mmol/L)>
-1.880352025

$$$$

CDXL12

 12 12  0  0  0  0  0  0  0  0999 V2000
   -2.5006    0.4125    0.0000 O   0  0  0  0  0  0  0  2  0  0  0  0
   -1.7862    0.8250    0.0000 C   0  0  0  0  0  0  0  2  0  0  0  0
   -1.0717    0.4125    0.0000 C   0  0  0  0  0  0  0  2  0  0  0  0
   -0.3572    0.8250    0.0000 C   0  0  0  0  0  0  0  2  0  0  0  0
    0.3572    0.4125    0.0000 C   0  0  0  0  0  0  0  2  0  0  0  0
    0.3572   -0.4125    0.0000 C   0  0  0  0  0  0  0  2  0  0  0  0
    1.0717   -0.8250    0.0000 O   0  0  0  0  0  0  0  2  0  0  0  0
    1.7862   -0.4125    0.0000 C   0  0  0  0  0  0  0  2  0  0  0  0
    1.7862    0.4125    0.0000 C   0  0  0  0  0  0  0  2  0  0  0  0
    2.5006   -0.8250    0.0000 C   0  0  0  0  0  0  0  2  0  0  0  0
   -0.3572   -0.8250    0.0000 C   0  0  0  0  0  0  0  2  0  0  0  0
   -1.0717   -0.4125    0.0000 C   0  0  0  0  0  0  0  2  0  0  0  0
  1  2  2  0        0
  2  3  1  0        0
  3  4  4  0        0
  4  5  4  0        0
  5  6  4  0        0
  6  7  1  0        0
  7  8  1  0        0
  8  9  1  0        0
  8 10  1  0        0
  6 11  4  0        0
 11 12  4  0        0
  3 12  4  0        0
M  END
>  <CAS RN>
18962055

>  <SMILES>
O=Cc1ccc(OC(C)C)cc1

>  <Measured or Estimated Log10(mmol/L)>
-0.880929971

$$$$

CDXL12

 15 17  0  0  0  0  0  0  0  0999 V2000
   -0.9022   -0.9275    0.0000 C   0  0  0  0  0  0  0  2  0  0  0  0
   -0.7793   -0.1117    0.0000 C   0  0  0  0  0  0  0  2  0  0  0  0
    0.2777   -0.2729    0.0000 C   0  0  0  0  0  0  0  2  0  0  0  0
    0.2777    0.5521    0.0000 C   0  0  0  0  0  0  0  2  0  0  0  0
   -0.3673    1.0664    0.0000 C   0  0  0  0  0  0  0  2  0  0  0  0
   -1.1716    0.8829    0.0000 C   0  0  0  0  0  0  0  2  0  0  0  0
   -1.5296    0.1396    0.0000 C   0  0  0  0  0  0  0  2  0  0  0  0
   -1.1716   -0.6037    0.0000 C   0  0  0  0  0  0  0  2  0  0  0  0
   -0.3673   -0.7873    0.0000 C   0  0  0  0  0  0  0  2  0  0  0  0
   -0.1837   -1.5916    0.0000 C   0  0  0  0  0  0  0  2  0  0  0  0
    1.0623    0.8070    0.0000 C   0  0  0  0  0  0  0  2  0  0  0  0
    1.3173    1.5916    0.0000 C   0  0  0  0  0  0  0  2  0  0  0  0
    1.5472    0.1396    0.0000 C   0  0  0  0  0  0  0  2  0  0  0  0
    1.0623   -0.5279    0.0000 C   0  0  0  0  0  0  0  2  0  0  0  0
   -1.5472   -0.4132    0.0000 C   0  0  0  0  0  0  0  2  0  0  0  0
  1  2  1  0        0
  2  3  1  0        0
  3  4  1  0        0
  4  5  1  0        0
  5  6  1  0        0
  2  6  1  0        0
  6  7  1  0        0
  7  8  1  0        0
  8  9  1  0        0
  3  9  1  0        0
  9 10  1  0        0
  4 11  1  0        0
 11 12  1  0        0
 11 13  1  0        0
 13 14  1  0        0
  3 14  1  0        0
  2 15  1  0        0
M  END
>  <CAS RN>
19078354

>  <SMILES>
CC1(C23C(CC1CCC2C)C(C)CC3)C

>  <Measured or Estimated Log10(mmol/L)>
-3.770584825

$$$$

CDXL12

  9  9  0  0  0  0  0  0  0  0999 V2000
   -0.3572    1.2375    0.0000 Cl  0  0  0  0  0  0  0  2  0  0  0  0
   -0.3572    0.4125    0.0000 C   0  0  0  0  0  0  0  2  0  0  0  0
    0.3572    0.0000    0.0000 C   0  0  0  0  0  0  0  2  0  0  0  0
    1.0717    0.4125    0.0000 Br  0  0  0  0  0  0  0  2  0  0  0  0
    0.3572   -0.8250    0.0000 C   0  0  0  0  0  0  0  2  0  0  0  0
    1.0717   -1.2375    0.0000 Cl  0  0  0  0  0  0  0  2  0  0  0  0
   -0.3572   -1.2375    0.0000 C   0  0  0  0  0  0  0  2  0  0  0  0
   -1.0717   -0.8250    0.0000 C   0  0  0  0  0  0  0  2  0  0  0  0
   -1.0717    0.0000    0.0000 C   0  0  0  0  0  0  0  2  0  0  0  0
  1  2  1  0        0
  2  3  4  0        0
  3  4  1  0        0
  3  5  4  0        0
  5  6  1  0        0
  5  7  4  0        0
  7  8  4  0        0
  8  9  4  0        0
  2  9  4  0        0
M  END
>  <CAS RN>
19393921

>  <SMILES>
Clc1c(Br)c(Cl)ccc1

>  <Measured or Estimated Log10(mmol/L)>
-2.741141973

$$$$

CDXL12

  9  9  0  0  0  0  0  0  0  0999 V2000
   -0.7145   -0.4125    0.0000 C   0  0  0  0  0  0  0  2  0  0  0  0
   -0.7145    0.4125    0.0000 C   0  0  0  0  0  0  0  2  0  0  0  0
    0.0000    0.8250    0.0000 C   0  0  0  0  0  0  0  2  0  0  0  0
    0.7145    0.4125    0.0000 C   0  0  0  0  0  0  0  2  0  0  0  0
    0.7145   -0.4125    0.0000 C   0  0  0  0  0  0  0  2  0  0  0  0
    1.4289   -0.8250    0.0000 C   0  0  0  0  0  0  0  2  0  0  0  0
    0.0000   -0.8250    0.0000 C   0  0  0  0  0  0  0  2  0  0  0  0
    1.4289    0.8250    0.0000 Cl  0  0  0  0  0  0  0  2  0  0  0  0
   -1.4289   -0.8250    0.0000 Cl  0  0  0  0  0  0  0  2  0  0  0  0
  1  2  4  0        0
  2  3  4  0        0
  3  4  4  0        0
  4  5  4  0        0
  5  6  1  0        0
  5  7  4  0        0
  1  7  4  0        0
  4  8  1  0        0
  1  9  1  0        0
M  END
>  <CAS RN>
19398619

>  <SMILES>
c1(ccc(c(C)c1)Cl)Cl

>  <Measured or Estimated Log10(mmol/L)>
-2.118648023

$$$$

CDXL12

 14 14  0  0  0  0  0  0  0  0999 V2000
    0.0000    1.6500    0.0000 C   0  0  0  0  0  0  0  2  0  0  0  0
    0.0000    0.8250    0.0000 C   0  0  0  0  0  0  0  2  0  0  0  0
    0.7145    0.4125    0.0000 C   0  0  0  0  0  0  0  2  0  0  0  0
    0.7145   -0.4125    0.0000 C   0  0  0  0  0  0  0  2  0  0  0  0
    0.0000   -0.8250    0.0000 C   0  0  0  0  0  0  0  2  0  0  0  0
    0.0000   -1.6500    0.0000 N   0  0  0  0  0  0  0  2  0  0  0  0
   -0.7145   -0.4125    0.0000 C   0  0  0  0  0  0  0  2  0  0  0  0
   -0.7145    0.4125    0.0000 C   0  0  0  0  0  0  0  2  0  0  0  0
   -1.4289    0.8250    0.0000 N   0  0  0  0  0  0  0  2  0  0  0  0
   -1.4289    1.6500    0.0000 O   0  0  0  0  0  0  0  2  0  0  0  0
   -2.1434    0.4125    0.0000 O   0  0  0  0  0  0  0  2  0  0  0  0
    1.4289    0.8250    0.0000 N   0  0  0  0  0  0  0  2  0  0  0  0
    1.4289    1.6500    0.0000 O   0  0  0  0  0  0  0  2  0  0  0  0
    2.1434    0.4125    0.0000 O   0  0  0  0  0  0  0  2  0  0  0  0
  1  2  1  0        0
  2  3  4  0        0
  3  4  4  0        0
  4  5  4  0        0
  5  6  1  0        0
  5  7  4  0        0
  7  8  4  0        0
  2  8  4  0        0
  8  9  1  0        0
  9 10  2  0        0
  9 11  2  0        0
  3 12  1  0        0
 12 13  2  0        0
 12 14  2  0        0
M  END
>  <CAS RN>
19406510

>  <SMILES>
Cc1c(cc(N)cc1N(=O)=O)N(=O)=O

>  <Measured or Estimated Log10(mmol/L)>
-1.575843186

$$$$

CDXL12

 24 23  0  0  0  0  0  0  0  0999 V2000
   -5.0013   -1.6500    0.0000 C   0  0  0  0  0  0  0  2  0  0  0  0
   -5.0013   -0.8250    0.0000 C   0  0  0  0  0  0  0  2  0  0  0  0
   -4.2868   -0.4125    0.0000 C   0  0  0  0  0  0  0  2  0  0  0  0
   -3.5724   -0.8250    0.0000 C   0  0  0  0  0  0  0  2  0  0  0  0
   -2.8579   -0.4125    0.0000 C   0  0  0  0  0  0  0  2  0  0  0  0
   -2.1434   -0.8250    0.0000 C   0  0  0  0  0  0  0  2  0  0  0  0
   -1.4289   -0.4125    0.0000 C   0  0  0  0  0  0  0  2  0  0  0  0
   -0.7145   -0.8250    0.0000 C   0  0  0  0  0  0  0  2  0  0  0  0
    0.0000   -0.4125    0.0000 N   0  0  0  0  0  0  0  2  0  0  0  0
    0.0000    0.4125    0.0000 C   0  0  0  0  0  0  0  2  0  0  0  0
   -0.7145    0.8250    0.0000 C   0  0  0  0  0  0  0  2  0  0  0  0
   -0.7145    1.6500    0.0000 O   0  0  0  0  0  0  0  2  0  0  0  0
    0.7145   -0.8250    0.0000 C   0  0  0  0  0  0  0  2  0  0  0  0
    1.4289   -0.4125    0.0000 C   0  0  0  0  0  0  0  2  0  0  0  0
    2.1434   -0.8250    0.0000 C   0  0  0  0  0  0  0  2  0  0  0  0
    2.1434   -1.6500    0.0000 C   0  0  0  0  0  0  0  2  0  0  0  0
    2.8579   -0.4125    0.0000 C   0  0  0  0  0  0  0  2  0  0  0  0
    3.5724   -0.8250    0.0000 C   0  0  0  0  0  0  0  2  0  0  0  0
    4.2868   -0.4125    0.0000 C   0  0  0  0  0  0  0  2  0  0  0  0
    5.0013   -0.8250    0.0000 C   0  0  0  0  0  0  0  2  0  0  0  0
    5.7158   -0.4125    0.0000 C   0  0  0  0  0  0  0  2  0  0  0  0
    5.0013   -1.6500    0.0000 C   0  0  0  0  0  0  0  2  0  0  0  0
   -2.1434   -1.6500    0.0000 C   0  0  0  0  0  0  0  2  0  0  0  0
   -5.7158   -0.4125    0.0000 C   0  0  0  0  0  0  0  2  0  0  0  0
  1  2  1  0        0
  2  3  2  0        0
  3  4  1  0        0
  4  5  1  0        0
  5  6  1  0        0
  6  7  2  0        0
  7  8  1  0        0
  8  9  1  0        0
  9 10  1  0        0
 10 11  1  0        0
 11 12  1  0        0
  9 13  1  0        0
 13 14  1  0        0
 14 15  2  0        0
 15 16  1  0        0
 15 17  1  0        0
 17 18  1  0        0
 18 19  1  0        0
 19 20  2  0        0
 20 21  1  0        0
 20 22  1  0        0
  6 23  1  0        0
  2 24  1  0        0
M  END
>  <CAS RN>
19902046

>  <SMILES>
CC(=CCCC(=CCN(CCO)CC=C(C)CCC=C(C)C)C)C

>  <Measured or Estimated Log10(mmol/L)>
-2.85431466

$$$$

CDXL12

 15 15  0  0  0  0  0  0  0  0999 V2000
    2.8579    0.8250    0.0000 C   0  0  0  0  0  0  0  2  0  0  0  0
    2.1434    1.2375    0.0000 O   0  0  0  0  0  0  0  2  0  0  0  0
    1.4289    0.8250    0.0000 C   0  0  0  0  0  0  0  2  0  0  0  0
    0.7145    1.2375    0.0000 C   0  0  0  0  0  0  0  2  0  0  0  0
    0.0000    0.8250    0.0000 C   0  0  0  0  0  0  0  2  0  0  0  0
    0.0000    0.0000    0.0000 C   0  0  0  0  0  0  0  2  0  0  0  0
   -0.7145   -0.4125    0.0000 N   0  0  0  0  0  0  0  2  0  0  0  0
   -1.4289    0.0000    0.0000 C   0  0  0  0  0  0  0  2  0  0  0  0
   -1.4289    0.8250    0.0000 O   0  0  0  0  0  0  0  2  0  0  0  0
   -2.1434   -0.4125    0.0000 N   0  0  0  0  0  0  0  2  0  0  0  0
   -2.1434   -1.2375    0.0000 C   0  0  0  0  0  0  0  2  0  0  0  0
   -2.8579    0.0000    0.0000 C   0  0  0  0  0  0  0  2  0  0  0  0
    0.7145   -0.4125    0.0000 C   0  0  0  0  0  0  0  2  0  0  0  0
    1.4289    0.0000    0.0000 C   0  0  0  0  0  0  0  2  0  0  0  0
    2.1434   -0.4125    0.0000 Cl  0  0  0  0  0  0  0  2  0  0  0  0
  1  2  1  0        0
  2  3  1  0        0
  3  4  4  0        0
  4  5  4  0        0
  5  6  4  0        0
  6  7  1  0        0
  7  8  1  0        0
  8  9  2  0        0
  8 10  1  0        0
 10 11  1  0        0
 10 12  1  0        0
  6 13  4  0        0
 13 14  4  0        0
  3 14  4  0        0
 14 15  1  0        0
M  END
>  <CAS RN>
19937598

>  <SMILES>
COc1ccc(NC(=O)N(C)C)cc1Cl

>  <Measured or Estimated Log10(mmol/L)>
-0.155106302

$$$$

CDXL12

 16 17  0  0  0  0  0  0  0  0999 V2000
    0.3572   -0.4125    0.0000 N   0  0  0  0  0  0  0  2  0  0  0  0
   -0.3572   -0.8250    0.0000 C   0  0  0  0  0  0  0  2  0  0  0  0
   -0.3572   -1.6500    0.0000 N   0  0  0  0  0  0  0  2  0  0  0  0
   -1.0717   -2.0625    0.0000 N   0  0  0  0  0  0  0  2  0  0  0  0
   -1.0717   -0.4125    0.0000 N   0  0  0  0  0  0  0  2  0  0  0  0
   -1.0717    0.4125    0.0000 C   0  0  0  0  0  0  0  2  0  0  0  0
   -1.7862    0.8250    0.0000 N   0  0  0  0  0  0  0  2  0  0  0  0
   -2.5006    0.4125    0.0000 N   0  0  0  0  0  0  0  2  0  0  0  0
   -0.3572    0.8250    0.0000 N   0  0  0  0  0  0  0  2  0  0  0  0
    0.3572    0.4125    0.0000 C   0  0  0  0  0  0  0  2  0  0  0  0
    1.0717    0.8250    0.0000 N   0  0  0  0  0  0  0  2  0  0  0  0
    1.0717    1.6500    0.0000 C   0  0  0  0  0  0  0  2  0  0  0  0
    1.7862    2.0625    0.0000 C   0  0  0  0  0  0  0  2  0  0  0  0
    2.5006    1.6500    0.0000 O   0  0  0  0  0  0  0  2  0  0  0  0
    2.5006    0.8250    0.0000 C   0  0  0  0  0  0  0  2  0  0  0  0
    1.7862    0.4125    0.0000 C   0  0  0  0  0  0  0  2  0  0  0  0
  1  2  4  0        0
  2  3  1  0        0
  3  4  1  0        0
  2  5  4  0        0
  5  6  4  0        0
  6  7  1  0        0
  7  8  1  0        0
  6  9  4  0        0
  9 10  4  0        0
  1 10  4  0        0
 10 11  1  0        0
 11 12  1  0        0
 12 13  1  0        0
 13 14  1  0        0
 14 15  1  0        0
 15 16  1  0        0
 11 16  1  0        0
M  END
>  <CAS RN>
19992257

>  <SMILES>
n1c(NN)nc(NN)nc1N1CCOCC1

>  <Measured or Estimated Log10(mmol/L)>
-1.560374052

$$$$

CDXL12

 14 13  0  0  0  0  0  0  0  0999 V2000
   -1.4289    1.0313    0.0000 S   0  0  0  0  0  0  0  2  0  0  0  0
   -1.4289    0.2062    0.0000 P   0  0  0  0  0  0  0  2  0  0  0  0
   -0.7145   -0.2062    0.0000 S   0  0  0  0  0  0  0  2  0  0  0  0
   -0.0000    0.2062    0.0000 C   0  0  0  0  0  0  0  2  0  0  0  0
    0.7145   -0.2062    0.0000 C   0  0  0  0  0  0  0  2  0  0  0  0
    1.4289    0.2062    0.0000 S   0  0  0  0  0  0  0  2  0  0  0  0
    1.8414   -0.5082    0.0000 O   0  0  0  0  0  0  0  2  0  0  0  0
    1.0164    0.9207    0.0000 O   0  0  0  0  0  0  0  2  0  0  0  0
    2.1434    0.6187    0.0000 C   0  0  0  0  0  0  0  2  0  0  0  0
    2.8579    0.2062    0.0000 C   0  0  0  0  0  0  0  2  0  0  0  0
   -2.1434   -0.2062    0.0000 O   0  0  0  0  0  0  0  2  0  0  0  0
   -2.8579    0.2062    0.0000 C   0  0  0  0  0  0  0  2  0  0  0  0
   -1.4289   -0.6188    0.0000 O   0  0  0  0  0  0  0  2  0  0  0  0
   -2.1434   -1.0313    0.0000 C   0  0  0  0  0  0  0  2  0  0  0  0
  1  2  2  0        0
  2  3  1  0        0
  3  4  1  0        0
  4  5  1  0        0
  5  6  1  0        0
  6  7  2  0        0
  6  8  2  0        0
  6  9  1  0        0
  9 10  1  0        0
  2 11  1  0        0
 11 12  1  0        0
  2 13  1  0        0
 13 14  1  0        0
M  END
>  <CAS RN>
20301637

>  <SMILES>
S=P(SCCS(=O)(=O)CC)(OC)OC

>  <Measured or Estimated Log10(mmol/L)>
-1.589028322

$$$$

CDXL12

 55 62  0  0  0  0  0  0  0  0999 V2000
   -5.5326   -0.8897    0.0000 O   0  0  0  0  0  0  0  2  0  0  0  0
   -6.2471   -0.4772    0.0000 C   0  0  0  0  0  0  0  2  0  0  0  0
   -6.2471    0.3478    0.0000 C   0  0  0  0  0  0  0  2  0  0  0  0
   -6.9616   -0.8897    0.0000 C   0  0  0  0  0  0  0  2  0  0  0  0
   -7.6760   -0.4772    0.0000 O   0  0  0  0  0  0  0  2  0  0  0  0
   -6.9616   -1.7147    0.0000 C   0  0  0  0  0  0  0  2  0  0  0  0
   -7.6760   -2.1272    0.0000 O   0  0  0  0  0  0  0  2  0  0  0  0
   -6.2471   -2.1272    0.0000 C   0  0  0  0  0  0  0  2  0  0  0  0
   -5.5326   -1.7147    0.0000 C   0  0  0  0  0  0  0  2  0  0  0  0
   -4.8182   -2.1272    0.0000 O   0  0  0  0  0  0  0  2  0  0  0  0
   -4.1037   -1.7147    0.0000 C   0  0  0  0  0  0  0  2  0  0  0  0
   -3.3892   -2.1272    0.0000 C   0  0  0  0  0  0  0  2  0  0  0  0
   -3.3892   -2.9522    0.0000 C   0  0  0  0  0  0  0  2  0  0  0  0
   -2.6748   -1.7147    0.0000 O   0  0  0  0  0  0  0  2  0  0  0  0
   -2.6748   -0.8897    0.0000 C   0  0  0  0  0  0  0  2  0  0  0  0
   -3.3892   -0.4772    0.0000 C   0  0  0  0  0  0  0  2  0  0  0  0
   -4.1037   -0.8897    0.0000 C   0  0  0  0  0  0  0  2  0  0  0  0
   -4.8182   -0.4772    0.0000 O   0  0  0  0  0  0  0  2  0  0  0  0
   -1.9603   -0.4772    0.0000 O   0  0  0  0  0  0  0  2  0  0  0  0
   -1.2458   -0.8897    0.0000 C   0  0  0  0  0  0  0  2  0  0  0  0
   -1.2458   -1.7147    0.0000 C   0  0  0  0  0  0  0  2  0  0  0  0
   -1.9603   -2.1272    0.0000 C   0  0  0  0  0  0  0  2  0  0  0  0
   -0.5313   -2.1272    0.0000 O   0  0  0  0  0  0  0  2  0  0  0  0
    0.1831   -1.7147    0.0000 C   0  0  0  0  0  0  0  2  0  0  0  0
    0.1831   -0.8897    0.0000 C   0  0  0  0  0  0  0  2  0  0  0  0
   -0.5313   -0.4772    0.0000 C   0  0  0  0  0  0  0  2  0  0  0  0
   -0.5313    0.3478    0.0000 O   0  0  0  0  0  0  0  2  0  0  0  0
    0.8976   -2.1272    0.0000 O   0  0  0  0  0  0  0  2  0  0  0  0
    1.6121   -1.7147    0.0000 C   0  0  0  0  0  0  0  2  0  0  0  0
    2.3265   -2.1272    0.0000 C   0  0  0  0  0  0  0  2  0  0  0  0
    3.0410   -1.7147    0.0000 C   0  0  0  0  0  0  0  2  0  0  0  0
    3.7555   -2.1272    0.0000 C   0  0  0  0  0  0  0  2  0  0  0  0
    4.4700   -1.7147    0.0000 C   0  0  0  0  0  0  0  2  0  0  0  0
    4.4700   -0.8897    0.0000 C   0  0  0  0  0  0  0  2  0  0  0  0
    5.1844   -0.4772    0.0000 C   0  0  0  0  0  0  0  2  0  0  0  0
    5.2707   -1.2977    0.0000 O   0  0  0  0  0  0  0  2  0  0  0  0
    5.9690   -0.7322    0.0000 C   0  0  0  0  0  0  0  2  0  0  0  0
    6.4540   -0.0647    0.0000 C   0  0  0  0  0  0  0  2  0  0  0  0
    5.9690    0.6027    0.0000 C   0  0  0  0  0  0  0  2  0  0  0  0
    6.2240    1.3873    0.0000 C   0  0  0  0  0  0  0  2  0  0  0  0
    7.0086    1.6423    0.0000 C   0  0  0  0  0  0  0  2  0  0  0  0
    7.0086    2.4673    0.0000 C   0  0  0  0  0  0  0  2  0  0  0  0
    7.6760    2.9522    0.0000 O   0  0  0  0  0  0  0  2  0  0  0  0
    6.2240    2.7222    0.0000 O   0  0  0  0  0  0  0  2  0  0  0  0
    5.7391    2.0548    0.0000 C   0  0  0  0  0  0  0  2  0  0  0  0
    5.1844    0.3478    0.0000 C   0  0  0  0  0  0  0  2  0  0  0  0
    5.2707    1.1683    0.0000 C   0  0  0  0  0  0  0  2  0  0  0  0
    4.4700    0.7603    0.0000 C   0  0  0  0  0  0  0  2  0  0  0  0
    4.4700    1.5853    0.0000 O   0  0  0  0  0  0  0  2  0  0  0  0
    3.7555    0.3478    0.0000 C   0  0  0  0  0  0  0  2  0  0  0  0
    3.7555   -0.4772    0.0000 C   0  0  0  0  0  0  0  2  0  0  0  0
    3.0410   -0.8897    0.0000 C   0  0  0  0  0  0  0  2  0  0  0  0
    3.0410   -0.0647    0.0000 C   0  0  0  0  0  0  0  2  0  0  0  0
    2.3265   -0.4772    0.0000 C   0  0  0  0  0  0  0  2  0  0  0  0
    1.6121   -0.8897    0.0000 C   0  0  0  0  0  0  0  2  0  0  0  0
  1  2  1  0        0
  2  3  1  0        0
  2  4  1  0        0
  4  5  1  0        0
  4  6  1  0        0
  6  7  1  0        0
  6  8  1  0        0
  8  9  1  0        0
  1  9  1  0        0
  9 10  1  0        0
 10 11  1  0        0
 11 12  1  0        0
 12 13  1  0        0
 12 14  1  0        0
 14 15  1  0        0
 15 16  1  0        0
 16 17  1  0        0
 11 17  1  0        0
 17 18  1  0        0
 15 19  1  0        0
 19 20  1  0        0
 20 21  1  0        0
 21 22  1  0        0
 21 23  1  0        0
 23 24  1  0        0
 24 25  1  0        0
 25 26  1  0        0
 20 26  1  0        0
 26 27  1  0        0
 24 28  1  0        0
 28 29  1  0        0
 29 30  1  0        0
 30 31  1  0        0
 31 32  1  0        0
 32 33  1  0        0
 33 34  1  0        0
 34 35  1  0        0
 35 36  1  0        0
 35 37  1  0        0
 37 38  1  0        0
 38 39  1  0        0
 39 40  1  0        0
 40 41  2  0        0
 41 42  1  0        0
 42 43  2  0        0
 42 44  1  0        0
 44 45  1  0        0
 40 45  1  0        0
 39 46  1  0        0
 35 46  1  0        0
 46 47  1  0        0
 46 48  1  0        0
 48 49  1  0        0
 48 50  1  0        0
 50 51  1  0        0
 34 51  1  0        0
 51 52  1  0        0
 31 52  1  0        0
 52 53  1  0        0
 52 54  1  0        0
 54 55  1  0        0
 29 55  1  0        0
M  END
>  <CAS RN>
20830755

>  <SMILES>
O1C(C)C(O)C(O)CC1OC1C(C)OC(CC1O)OC1C(C)OC(CC1O)OC1CC2CCC3C4(O)CCC(\C\5=C\C(=O)OC5)C4(C)C(O)CC3C2(C)CC1

>  <Measured or Estimated Log10(mmol/L)>
-0.9271491

$$$$

CDXL12

  8  7  0  0  0  0  0  0  0  0999 V2000
    0.8043   -0.2244    0.0000 Na  0  0  0  0  0  0  0  2  0  0  0  0
    0.0000   -0.0409    0.0000 P   0  0  0  0  0  0  0  2  0  0  0  0
    0.6450    0.4735    0.0000 F   0  0  0  0  0  0  0  2  0  0  0  0
    0.0000    0.7841    0.0000 F   0  0  0  0  0  0  0  2  0  0  0  0
   -0.6450    0.4735    0.0000 F   0  0  0  0  0  0  0  2  0  0  0  0
   -0.8043   -0.2244    0.0000 F   0  0  0  0  0  0  0  2  0  0  0  0
   -0.3580   -0.7841    0.0000 F   0  0  0  0  0  0  0  2  0  0  0  0
    0.3580   -0.7841    0.0000 F   0  0  0  0  0  0  0  2  0  0  0  0
  1  2  1  0        0
  2  3  1  0        0
  2  4  1  0        0
  2  5  1  0        0
  2  6  1  0        0
  2  7  1  0        0
  2  8  1  0        0
M  END
>  <CAS RN>
21324390

>  <SMILES>
[Na]P(F)(F)(F)(F)(F)F

>  <Measured or Estimated Log10(mmol/L)>
1.745385296

$$$$

CDXL12

 17 17  0  0  0  0  0  0  0  0999 V2000
   -0.3572   -0.0000    0.0000 N   0  0  0  0  0  0  0  2  0  0  0  0
   -0.3572   -0.8250    0.0000 C   0  0  0  0  0  0  0  2  0  0  0  0
   -1.0717   -1.2375    0.0000 N   0  0  0  0  0  0  0  2  0  0  0  0
   -1.7862   -0.8250    0.0000 C   0  0  0  0  0  0  0  2  0  0  0  0
   -2.5006   -1.2375    0.0000 C   0  0  0  0  0  0  0  2  0  0  0  0
   -3.2151   -1.6500    0.0000 N   0  0  0  0  0  0  0  2  0  0  0  0
   -2.1987   -0.1105    0.0000 C   0  0  0  0  0  0  0  2  0  0  0  0
   -1.3737   -0.1105    0.0000 C   0  0  0  0  0  0  0  2  0  0  0  0
    0.3572   -1.2375    0.0000 N   0  0  0  0  0  0  0  2  0  0  0  0
    1.0717   -0.8250    0.0000 C   0  0  0  0  0  0  0  2  0  0  0  0
    1.7862   -1.2375    0.0000 N   0  0  0  0  0  0  0  2  0  0  0  0
    2.5006   -0.8250    0.0000 C   0  0  0  0  0  0  0  2  0  0  0  0
    3.2151   -1.2375    0.0000 C   0  0  0  0  0  0  0  2  0  0  0  0
    1.0717    0.0000    0.0000 N   0  0  0  0  0  0  0  2  0  0  0  0
    0.3572    0.4125    0.0000 C   0  0  0  0  0  0  0  2  0  0  0  0
    0.3572    1.2375    0.0000 S   0  0  0  0  0  0  0  2  0  0  0  0
    1.0717    1.6500    0.0000 C   0  0  0  0  0  0  0  2  0  0  0  0
  1  2  4  0        0
  2  3  1  0        0
  3  4  1  0        0
  4  5  1  0        0
  5  6  3  0        0
  4  7  1  0        0
  4  8  1  0        0
  2  9  4  0        0
  9 10  4  0        0
 10 11  1  0        0
 11 12  1  0        0
 12 13  1  0        0
 10 14  4  0        0
 14 15  4  0        0
  1 15  4  0        0
 15 16  1  0        0
 16 17  1  0        0
M  END
>  <CAS RN>
21689849

>  <SMILES>
n1c(NC(C#N)(C)C)nc(NCC)nc1SC

>  <Measured or Estimated Log10(mmol/L)>
-1.21

$$$$

CDXL12

 19 19  0  0  0  0  0  0  0  0999 V2000
    2.1434   -1.0313    0.0000 C   0  0  0  0  0  0  0  2  0  0  0  0
    1.4289   -1.4438    0.0000 O   0  0  0  0  0  0  0  2  0  0  0  0
    0.7145   -1.0313    0.0000 P   0  0  0  0  0  0  0  2  0  0  0  0
    0.7145   -0.2062    0.0000 O   0  0  0  0  0  0  0  2  0  0  0  0
    0.7145   -1.8563    0.0000 O   0  0  0  0  0  0  0  2  0  0  0  0
    1.4289   -2.2687    0.0000 C   0  0  0  0  0  0  0  2  0  0  0  0
    0.0000   -1.4438    0.0000 O   0  0  0  0  0  0  0  2  0  0  0  0
   -0.7145   -1.0313    0.0000 C   0  0  0  0  0  0  0  2  0  0  0  0
   -1.4289   -1.4438    0.0000 C   0  0  0  0  0  0  0  2  0  0  0  0
   -2.1434   -1.0313    0.0000 Cl  0  0  0  0  0  0  0  2  0  0  0  0
   -0.7145   -0.2062    0.0000 C   0  0  0  0  0  0  0  2  0  0  0  0
    0.0000    0.2062    0.0000 C   0  0  0  0  0  0  0  2  0  0  0  0
    0.0000    1.0313    0.0000 C   0  0  0  0  0  0  0  2  0  0  0  0
    0.7145    1.4438    0.0000 Cl  0  0  0  0  0  0  0  2  0  0  0  0
   -0.7145    1.4438    0.0000 C   0  0  0  0  0  0  0  2  0  0  0  0
   -0.7145    2.2687    0.0000 Cl  0  0  0  0  0  0  0  2  0  0  0  0
   -1.4289    1.0313    0.0000 C   0  0  0  0  0  0  0  2  0  0  0  0
   -1.4289    0.2062    0.0000 C   0  0  0  0  0  0  0  2  0  0  0  0
   -2.1434   -0.2062    0.0000 Cl  0  0  0  0  0  0  0  2  0  0  0  0
  1  2  1  0        0
  2  3  1  0        0
  3  4  2  0        0
  3  5  1  0        0
  5  6  1  0        0
  3  7  1  0        0
  7  8  1  0        0
  8  9  2  0        0
  9 10  1  0        0
  8 11  1  0        0
 11 12  4  0        0
 12 13  4  0        0
 13 14  1  0        0
 13 15  4  0        0
 15 16  1  0        0
 15 17  4  0        0
 17 18  4  0        0
 11 18  4  0        0
 18 19  1  0        0
M  END
>  <CAS RN>
22248799

>  <SMILES>
COP(=O)(OC)OC(=CCl)c1cc(Cl)c(Cl)cc1Cl

>  <Measured or Estimated Log10(mmol/L)>
-5.613420222

$$$$

CDXL12

 25 28  0  0  0  0  0  0  0  0999 V2000
   -4.7545   -0.4708    0.0000 C   0  0  0  0  0  0  0  2  0  0  0  0
   -5.1670    0.2436    0.0000 C   0  0  0  0  0  0  0  2  0  0  0  0
   -4.6150    0.8567    0.0000 C   0  0  0  0  0  0  0  2  0  0  0  0
   -3.8613    0.5212    0.0000 C   0  0  0  0  0  0  0  2  0  0  0  0
   -3.9476   -0.2993    0.0000 C   0  0  0  0  0  0  0  2  0  0  0  0
   -3.1468    0.9337    0.0000 C   0  0  0  0  0  0  0  2  0  0  0  0
   -2.4324    0.5212    0.0000 C   0  0  0  0  0  0  0  2  0  0  0  0
   -1.6074    0.5212    0.0000 C   0  0  0  0  0  0  0  2  0  0  0  0
   -2.0199   -0.1933    0.0000 C   0  0  0  0  0  0  0  2  0  0  0  0
   -0.8929    0.9337    0.0000 C   0  0  0  0  0  0  0  2  0  0  0  0
   -0.8929    1.7587    0.0000 O   0  0  0  0  0  0  0  2  0  0  0  0
   -0.1784    0.5212    0.0000 O   0  0  0  0  0  0  0  2  0  0  0  0
    0.5360    0.9337    0.0000 C   0  0  0  0  0  0  0  2  0  0  0  0
    1.2505    0.5212    0.0000 C   0  0  0  0  0  0  0  2  0  0  0  0
    1.3367   -0.2993    0.0000 C   0  0  0  0  0  0  0  2  0  0  0  0
    2.1437   -0.4708    0.0000 C   0  0  0  0  0  0  0  2  0  0  0  0
    2.5562    0.2436    0.0000 C   0  0  0  0  0  0  0  2  0  0  0  0
    2.0042    0.8567    0.0000 O   0  0  0  0  0  0  0  2  0  0  0  0
    3.3767    0.3299    0.0000 C   0  0  0  0  0  0  0  2  0  0  0  0
    3.8616   -0.3376    0.0000 C   0  0  0  0  0  0  0  2  0  0  0  0
    4.6821   -0.2513    0.0000 C   0  0  0  0  0  0  0  2  0  0  0  0
    5.1670   -0.9188    0.0000 C   0  0  0  0  0  0  0  2  0  0  0  0
    4.8315   -1.6724    0.0000 C   0  0  0  0  0  0  0  2  0  0  0  0
    4.0110   -1.7587    0.0000 C   0  0  0  0  0  0  0  2  0  0  0  0
    3.5261   -1.0912    0.0000 C   0  0  0  0  0  0  0  2  0  0  0  0
  1  2  1  0        0
  2  3  1  0        0
  3  4  1  0        0
  4  5  1  0        0
  1  5  1  0        0
  4  6  2  0        0
  6  7  1  0        0
  7  8  1  0        0
  8  9  1  0        0
  7  9  1  0        0
  8 10  1  0        0
 10 11  2  0        0
 10 12  1  0        0
 12 13  1  0        0
 13 14  1  0        0
 14 15  4  0        0
 15 16  4  0        0
 16 17  4  0        0
 17 18  4  0        0
 14 18  4  0        0
 17 19  1  0        0
 19 20  1  0        0
 20 21  4  0        0
 21 22  4  0        0
 22 23  4  0        0
 23 24  4  0        0
 24 25  4  0        0
 20 25  4  0        0
M  END
>  <CAS RN>
22431625

>  <SMILES>
C1CCC(C1)=CC1C(C1)C(=O)OCc1ccc(o1)Cc1ccccc1

>  <Measured or Estimated Log10(mmol/L)>
-5.128955998

$$$$

CDXL12

 17 16  0  0  0  0  0  0  0  0999 V2000
   -0.0000   -1.4289    0.0000 C   0  0  0  0  0  0  0  2  0  0  0  0
    0.4125   -0.7145    0.0000 C   0  0  0  0  0  0  0  2  0  0  0  0
   -0.0000    0.0000    0.0000 Pb  0  0  0  0  0  0  0  2  0  0  0  0
   -0.4125    0.7145    0.0000 C   0  0  0  0  0  0  0  2  0  0  0  0
   -0.0000    1.4289    0.0000 C   0  0  0  0  0  0  0  2  0  0  0  0
   -0.7145   -0.4125    0.0000 O   0  0  0  0  0  0  0  2  0  0  0  0
   -1.4289   -0.0000    0.0000 C   0  0  0  0  0  0  0  2  0  0  0  0
   -1.4289    0.8250    0.0000 O   0  0  0  0  0  0  0  2  0  0  0  0
   -2.1434   -0.4125    0.0000 C   0  0  0  0  0  0  0  2  0  0  0  0
   -2.1434   -1.2375    0.0000 C   0  0  0  0  0  0  0  2  0  0  0  0
   -2.8579   -0.0000    0.0000 C   0  0  0  0  0  0  0  2  0  0  0  0
    0.7145    0.4125    0.0000 O   0  0  0  0  0  0  0  2  0  0  0  0
    1.4289   -0.0000    0.0000 C   0  0  0  0  0  0  0  2  0  0  0  0
    1.4289   -0.8250    0.0000 O   0  0  0  0  0  0  0  2  0  0  0  0
    2.1434    0.4125    0.0000 C   0  0  0  0  0  0  0  2  0  0  0  0
    2.1434    1.2375    0.0000 C   0  0  0  0  0  0  0  2  0  0  0  0
    2.8579   -0.0000    0.0000 C   0  0  0  0  0  0  0  2  0  0  0  0
  1  2  1  0        0
  2  3  1  0        0
  3  4  1  0        0
  4  5  1  0        0
  3  6  1  0        0
  6  7  1  0        0
  7  8  2  0        0
  7  9  1  0        0
  9 10  2  0        0
  9 11  1  0        0
  3 12  1  0        0
 12 13  1  0        0
 13 14  2  0        0
 13 15  1  0        0
 15 16  2  0        0
 15 17  1  0        0
M  END
>  <CAS RN>
22515500

>  <SMILES>
CC[Pb](CC)(OC(=O)C(=C)C)OC(=O)C(=C)C

>  <Measured or Estimated Log10(mmol/L)>
-3.638973001

$$$$

CDXL12

 13 12  0  0  0  0  0  0  0  0999 V2000
    1.9520   -0.8102    0.0000 C   0  0  0  0  0  0  0  2  0  0  0  0
    1.1270   -0.8102    0.0000 C   0  0  0  0  0  0  0  2  0  0  0  0
    0.7145   -0.0957    0.0000 Pb  0  0  0  0  0  0  0  2  0  0  0  0
    1.4289    0.3168    0.0000 C   0  0  0  0  0  0  0  2  0  0  0  0
    2.1434   -0.0957    0.0000 C   0  0  0  0  0  0  0  2  0  0  0  0
    0.3020    0.6188    0.0000 C   0  0  0  0  0  0  0  2  0  0  0  0
    0.7145    1.3332    0.0000 C   0  0  0  0  0  0  0  2  0  0  0  0
    0.0000   -0.5082    0.0000 O   0  0  0  0  0  0  0  2  0  0  0  0
   -0.7145   -0.0957    0.0000 C   0  0  0  0  0  0  0  2  0  0  0  0
   -0.7145    0.7293    0.0000 O   0  0  0  0  0  0  0  2  0  0  0  0
   -1.4289   -0.5082    0.0000 C   0  0  0  0  0  0  0  2  0  0  0  0
   -1.4289   -1.3332    0.0000 C   0  0  0  0  0  0  0  2  0  0  0  0
   -2.1434   -0.0957    0.0000 C   0  0  0  0  0  0  0  2  0  0  0  0
  1  2  1  0        0
  2  3  1  0        0
  3  4  1  0        0
  4  5  1  0        0
  3  6  1  0        0
  6  7  1  0        0
  3  8  1  0        0
  8  9  1  0        0
  9 10  2  0        0
  9 11  1  0        0
 11 12  2  0        0
 11 13  1  0        0
M  END
>  <CAS RN>
22515511

>  <SMILES>
CC[Pb](CC)(CC)OC(=O)C(=C)C

>  <Measured or Estimated Log10(mmol/L)>
-3.579171267

$$$$

CDXL12

 21 21  0  0  0  0  0  0  0  0999 V2000
    3.2151    0.6188    0.0000 C   0  0  0  0  0  0  0  2  0  0  0  0
    2.5006    1.0312    0.0000 C   0  0  0  0  0  0  0  2  0  0  0  0
    1.7862    0.6188    0.0000 C   0  0  0  0  0  0  0  2  0  0  0  0
    1.0717    1.0312    0.0000 C   0  0  0  0  0  0  0  2  0  0  0  0
    0.3572    0.6188    0.0000 O   0  0  0  0  0  0  0  2  0  0  0  0
   -0.3572    1.0312    0.0000 C   0  0  0  0  0  0  0  2  0  0  0  0
   -1.0717    0.6188    0.0000 N   0  0  0  0  0  0  0  2  0  0  0  0
   -1.7862    1.0313    0.0000 C   0  0  0  0  0  0  0  2  0  0  0  0
   -1.7862    1.8563    0.0000 O   0  0  0  0  0  0  0  2  0  0  0  0
   -2.5006    0.6188    0.0000 C   0  0  0  0  0  0  0  2  0  0  0  0
   -3.2151    1.0312    0.0000 Cl  0  0  0  0  0  0  0  2  0  0  0  0
   -1.0717   -0.2062    0.0000 C   0  0  0  0  0  0  0  2  0  0  0  0
   -1.7862   -0.6188    0.0000 C   0  0  0  0  0  0  0  2  0  0  0  0
   -2.5006   -0.2062    0.0000 C   0  0  0  0  0  0  0  2  0  0  0  0
   -3.2151   -0.6188    0.0000 C   0  0  0  0  0  0  0  2  0  0  0  0
   -1.7862   -1.4438    0.0000 C   0  0  0  0  0  0  0  2  0  0  0  0
   -1.0717   -1.8563    0.0000 C   0  0  0  0  0  0  0  2  0  0  0  0
   -0.3572   -1.4438    0.0000 C   0  0  0  0  0  0  0  2  0  0  0  0
   -0.3572   -0.6188    0.0000 C   0  0  0  0  0  0  0  2  0  0  0  0
    0.3572   -0.2062    0.0000 C   0  0  0  0  0  0  0  2  0  0  0  0
    1.0717   -0.6188    0.0000 C   0  0  0  0  0  0  0  2  0  0  0  0
  1  2  1  0        0
  2  3  1  0        0
  3  4  1  0        0
  4  5  1  0        0
  5  6  1  0        0
  6  7  1  0        0
  7  8  1  0        0
  8  9  2  0        0
  8 10  1  0        0
 10 11  1  0        0
  7 12  1  0        0
 12 13  4  0        0
 13 14  1  0        0
 14 15  1  0        0
 13 16  4  0        0
 16 17  4  0        0
 17 18  4  0        0
 18 19  4  0        0
 12 19  4  0        0
 19 20  1  0        0
 20 21  1  0        0
M  END
>  <CAS RN>
23184669

>  <SMILES>
CCCCOCN(C(=O)CCl)c1c(CC)cccc1CC

>  <Measured or Estimated Log10(mmol/L)>
-2.015907819

$$$$

CDXL12

 16 16  0  0  0  0  0  0  0  0999 V2000
   -3.5724   -0.0000    0.0000 C   0  0  0  0  0  0  0  2  0  0  0  0
   -2.8579   -0.4125    0.0000 N   0  0  0  0  0  0  0  2  0  0  0  0
   -2.1434    0.0000    0.0000 C   0  0  0  0  0  0  0  2  0  0  0  0
   -2.1434    0.8250    0.0000 O   0  0  0  0  0  0  0  2  0  0  0  0
   -1.4289   -0.4125    0.0000 O   0  0  0  0  0  0  0  2  0  0  0  0
   -0.7145   -0.0000    0.0000 C   0  0  0  0  0  0  0  2  0  0  0  0
   -0.7145    0.8250    0.0000 C   0  0  0  0  0  0  0  2  0  0  0  0
    0.0000    1.2375    0.0000 C   0  0  0  0  0  0  0  2  0  0  0  0
    0.7145    0.8250    0.0000 C   0  0  0  0  0  0  0  2  0  0  0  0
    0.7145   -0.0000    0.0000 C   0  0  0  0  0  0  0  2  0  0  0  0
    1.4289   -0.4125    0.0000 N   0  0  0  0  0  0  0  2  0  0  0  0
    2.1434   -0.0000    0.0000 C   0  0  0  0  0  0  0  2  0  0  0  0
    2.8579   -0.4125    0.0000 N   0  0  0  0  0  0  0  2  0  0  0  0
    2.8579   -1.2375    0.0000 C   0  0  0  0  0  0  0  2  0  0  0  0
    3.5724   -0.0000    0.0000 C   0  0  0  0  0  0  0  2  0  0  0  0
    0.0000   -0.4125    0.0000 C   0  0  0  0  0  0  0  2  0  0  0  0
  1  2  1  0        0
  2  3  1  0        0
  3  4  2  0        0
  3  5  1  0        0
  5  6  1  0        0
  6  7  4  0        0
  7  8  4  0        0
  8  9  4  0        0
  9 10  4  0        0
 10 11  1  0        0
 11 12  2  0        0
 12 13  1  0        0
 13 14  1  0        0
 13 15  1  0        0
 10 16  4  0        0
  6 16  4  0        0
M  END
>  <CAS RN>
23422539

>  <SMILES>
CNC(=O)Oc1cccc(N=CN(C)C)c1

>  <Measured or Estimated Log10(mmol/L)>
-3.44

$$$$

CDXL12

 22 22  0  0  0  0  0  0  0  0999 V2000
   -2.8579   -2.0625    0.0000 C   0  0  0  0  0  0  0  2  0  0  0  0
   -2.1434   -2.4750    0.0000 O   0  0  0  0  0  0  0  2  0  0  0  0
   -1.4289   -2.0625    0.0000 C   0  0  0  0  0  0  0  2  0  0  0  0
   -1.4289   -1.2375    0.0000 O   0  0  0  0  0  0  0  2  0  0  0  0
   -0.7145   -2.4750    0.0000 N   0  0  0  0  0  0  0  2  0  0  0  0
    0.0000   -2.0625    0.0000 C   0  0  0  0  0  0  0  2  0  0  0  0
    0.0000   -1.2375    0.0000 S   0  0  0  0  0  0  0  2  0  0  0  0
    0.7145   -2.4750    0.0000 N   0  0  0  0  0  0  0  2  0  0  0  0
    1.4289   -2.0625    0.0000 C   0  0  0  0  0  0  0  2  0  0  0  0
    2.1434   -2.4750    0.0000 C   0  0  0  0  0  0  0  2  0  0  0  0
    2.8579   -2.0625    0.0000 C   0  0  0  0  0  0  0  2  0  0  0  0
    2.8579   -1.2375    0.0000 C   0  0  0  0  0  0  0  2  0  0  0  0
    2.1434   -0.8250    0.0000 C   0  0  0  0  0  0  0  2  0  0  0  0
    1.4289   -1.2375    0.0000 C   0  0  0  0  0  0  0  2  0  0  0  0
    0.7145   -0.8250    0.0000 N   0  0  0  0  0  0  0  2  0  0  0  0
    0.7145    0.0000    0.0000 C   0  0  0  0  0  0  0  2  0  0  0  0
    0.0000    0.4125    0.0000 S   0  0  0  0  0  0  0  2  0  0  0  0
    1.4289    0.4125    0.0000 N   0  0  0  0  0  0  0  2  0  0  0  0
    1.4289    1.2375    0.0000 C   0  0  0  0  0  0  0  2  0  0  0  0
    0.7145    1.6500    0.0000 O   0  0  0  0  0  0  0  2  0  0  0  0
    2.1434    1.6500    0.0000 O   0  0  0  0  0  0  0  2  0  0  0  0
    2.1434    2.4750    0.0000 C   0  0  0  0  0  0  0  2  0  0  0  0
  1  2  1  0        0
  2  3  1  0        0
  3  4  2  0        0
  3  5  1  0        0
  5  6  1  0        0
  6  7  2  0        0
  6  8  1  0        0
  8  9  1  0        0
  9 10  4  0        0
 10 11  4  0        0
 11 12  4  0        0
 12 13  4  0        0
 13 14  4  0        0
  9 14  4  0        0
 14 15  1  0        0
 15 16  1  0        0
 16 17  2  0        0
 16 18  1  0        0
 18 19  1  0        0
 19 20  2  0        0
 19 21  1  0        0
 21 22  1  0        0
M  END
>  <CAS RN>
23564058

>  <SMILES>
COC(=O)NC(=S)Nc1ccccc1NC(=S)NC(=O)OC

>  <Measured or Estimated Log10(mmol/L)>
-1.3304087

$$$$

CDXL12

 35 34  0  0  0  0  0  0  0  0999 V2000
  -12.1460   -0.2062    0.0000 C   0  0  0  0  0  0  0  2  0  0  0  0
  -11.4315    0.2062    0.0000 C   0  0  0  0  0  0  0  2  0  0  0  0
  -10.7171   -0.2062    0.0000 C   0  0  0  0  0  0  0  2  0  0  0  0
  -10.0026    0.2062    0.0000 C   0  0  0  0  0  0  0  2  0  0  0  0
   -9.2881   -0.2062    0.0000 C   0  0  0  0  0  0  0  2  0  0  0  0
   -8.5737    0.2062    0.0000 C   0  0  0  0  0  0  0  2  0  0  0  0
   -7.8592   -0.2062    0.0000 C   0  0  0  0  0  0  0  2  0  0  0  0
   -7.1447    0.2062    0.0000 C   0  0  0  0  0  0  0  2  0  0  0  0
   -6.4302   -0.2062    0.0000 C   0  0  0  0  0  0  0  2  0  0  0  0
   -5.7158    0.2062    0.0000 C   0  0  0  0  0  0  0  2  0  0  0  0
   -5.0013   -0.2062    0.0000 O   0  0  0  0  0  0  0  2  0  0  0  0
   -4.2868    0.2062    0.0000 C   0  0  0  0  0  0  0  2  0  0  0  0
   -3.5724   -0.2062    0.0000 C   0  0  0  0  0  0  0  2  0  0  0  0
   -2.8579    0.2062    0.0000 O   0  0  0  0  0  0  0  2  0  0  0  0
   -2.1434   -0.2062    0.0000 C   0  0  0  0  0  0  0  2  0  0  0  0
   -1.4289    0.2062    0.0000 C   0  0  0  0  0  0  0  2  0  0  0  0
   -0.7145   -0.2062    0.0000 O   0  0  0  0  0  0  0  2  0  0  0  0
   -0.0000    0.2062    0.0000 C   0  0  0  0  0  0  0  2  0  0  0  0
    0.7145   -0.2062    0.0000 C   0  0  0  0  0  0  0  2  0  0  0  0
    1.4289    0.2062    0.0000 O   0  0  0  0  0  0  0  2  0  0  0  0
    2.1434   -0.2062    0.0000 C   0  0  0  0  0  0  0  2  0  0  0  0
    2.8579    0.2062    0.0000 C   0  0  0  0  0  0  0  2  0  0  0  0
    3.5724   -0.2062    0.0000 O   0  0  0  0  0  0  0  2  0  0  0  0
    4.2868    0.2062    0.0000 C   0  0  0  0  0  0  0  2  0  0  0  0
    5.0013   -0.2062    0.0000 C   0  0  0  0  0  0  0  2  0  0  0  0
    5.7158    0.2062    0.0000 O   0  0  0  0  0  0  0  2  0  0  0  0
    6.4302   -0.2062    0.0000 C   0  0  0  0  0  0  0  2  0  0  0  0
    7.1447    0.2062    0.0000 C   0  0  0  0  0  0  0  2  0  0  0  0
    7.8592   -0.2062    0.0000 O   0  0  0  0  0  0  0  2  0  0  0  0
    8.5737    0.2062    0.0000 C   0  0  0  0  0  0  0  2  0  0  0  0
    9.2881   -0.2062    0.0000 C   0  0  0  0  0  0  0  2  0  0  0  0
   10.0026    0.2062    0.0000 O   0  0  0  0  0  0  0  2  0  0  0  0
   10.7171   -0.2062    0.0000 C   0  0  0  0  0  0  0  2  0  0  0  0
   11.4315    0.2062    0.0000 C   0  0  0  0  0  0  0  2  0  0  0  0
   12.1460   -0.2062    0.0000 O   0  0  0  0  0  0  0  2  0  0  0  0
  1  2  1  0        0
  2  3  1  0        0
  3  4  1  0        0
  4  5  1  0        0
  5  6  1  0        0
  6  7  1  0        0
  7  8  1  0        0
  8  9  1  0        0
  9 10  1  0        0
 10 11  1  0        0
 11 12  1  0        0
 12 13  1  0        0
 13 14  1  0        0
 14 15  1  0        0
 15 16  1  0        0
 16 17  1  0        0
 17 18  1  0        0
 18 19  1  0        0
 19 20  1  0        0
 20 21  1  0        0
 21 22  1  0        0
 22 23  1  0        0
 23 24  1  0        0
 24 25  1  0        0
 25 26  1  0        0
 26 27  1  0        0
 27 28  1  0        0
 28 29  1  0        0
 29 30  1  0        0
 30 31  1  0        0
 31 32  1  0        0
 32 33  1  0        0
 33 34  1  0        0
 34 35  1  0        0
M  END
>  <CAS RN>
24233816

>  <SMILES>
CCCCCCCCCCOCCOCCOCCOCCOCCOCCOCCOCCO

>  <Measured or Estimated Log10(mmol/L)>
-1.54981101

$$$$

CDXL12

 16 16  0  0  0  0  0  0  0  0999 V2000
    4.2868    0.8250    0.0000 O   0  0  0  0  0  0  0  2  0  0  0  0
    3.5724    0.4125    0.0000 C   0  0  0  0  0  0  0  2  0  0  0  0
    3.5724   -0.4125    0.0000 C   0  0  0  0  0  0  0  2  0  0  0  0
    2.8579   -0.8250    0.0000 C   0  0  0  0  0  0  0  2  0  0  0  0
    2.1434   -0.4125    0.0000 C   0  0  0  0  0  0  0  2  0  0  0  0
    2.1434    0.4125    0.0000 C   0  0  0  0  0  0  0  2  0  0  0  0
    2.8579    0.8250    0.0000 C   0  0  0  0  0  0  0  2  0  0  0  0
    1.4289   -0.8250    0.0000 C   0  0  0  0  0  0  0  2  0  0  0  0
    0.7145   -0.4125    0.0000 C   0  0  0  0  0  0  0  2  0  0  0  0
    0.0000   -0.8250    0.0000 C   0  0  0  0  0  0  0  2  0  0  0  0
   -0.7145   -0.4125    0.0000 C   0  0  0  0  0  0  0  2  0  0  0  0
   -1.4289   -0.8250    0.0000 C   0  0  0  0  0  0  0  2  0  0  0  0
   -2.1434   -0.4125    0.0000 C   0  0  0  0  0  0  0  2  0  0  0  0
   -2.8579   -0.8250    0.0000 C   0  0  0  0  0  0  0  2  0  0  0  0
   -3.5724   -0.4125    0.0000 C   0  0  0  0  0  0  0  2  0  0  0  0
   -4.2868   -0.8250    0.0000 C   0  0  0  0  0  0  0  2  0  0  0  0
  1  2  1  0        0
  2  3  4  0        0
  3  4  4  0        0
  4  5  4  0        0
  5  6  4  0        0
  6  7  4  0        0
  2  7  4  0        0
  5  8  1  0        0
  8  9  1  0        0
  9 10  1  0        0
 10 11  1  0        0
 11 12  1  0        0
 12 13  1  0        0
 13 14  1  0        0
 14 15  1  0        0
 15 16  1  0        0
M  END
>  <CAS RN>
25154523

>  <SMILES>
Oc1ccc(cc1)CCCCCCCCC

>  <Measured or Estimated Log10(mmol/L)>
-2.503051885

$$$$

CDXL12

 23 23  0  0  0  0  0  0  0  0999 V2000
    6.0730    0.4678    0.0000 Na  0  0  0  0  0  0  0  2  0  0  0  0
    5.3585    0.8803    0.0000 O   0  0  0  0  0  0  0  2  0  0  0  0
    4.6441    0.4678    0.0000 S   0  0  0  0  0  0  0  2  0  0  0  0
    5.0566   -0.2467    0.0000 O   0  0  0  0  0  0  0  2  0  0  0  0
    4.2316    1.1822    0.0000 O   0  0  0  0  0  0  0  2  0  0  0  0
    3.9296    0.0553    0.0000 C   0  0  0  0  0  0  0  2  0  0  0  0
    3.9296   -0.7697    0.0000 C   0  0  0  0  0  0  0  2  0  0  0  0
    3.2151   -1.1822    0.0000 C   0  0  0  0  0  0  0  2  0  0  0  0
    2.5006   -0.7697    0.0000 C   0  0  0  0  0  0  0  2  0  0  0  0
    1.7862   -1.1822    0.0000 C   0  0  0  0  0  0  0  2  0  0  0  0
    1.0717   -0.7697    0.0000 C   0  0  0  0  0  0  0  2  0  0  0  0
    0.3572   -1.1822    0.0000 C   0  0  0  0  0  0  0  2  0  0  0  0
   -0.3572   -0.7697    0.0000 C   0  0  0  0  0  0  0  2  0  0  0  0
   -1.0717   -1.1822    0.0000 C   0  0  0  0  0  0  0  2  0  0  0  0
   -1.7862   -0.7697    0.0000 C   0  0  0  0  0  0  0  2  0  0  0  0
   -2.5006   -1.1822    0.0000 C   0  0  0  0  0  0  0  2  0  0  0  0
   -3.2151   -0.7697    0.0000 C   0  0  0  0  0  0  0  2  0  0  0  0
   -3.9296   -1.1822    0.0000 C   0  0  0  0  0  0  0  2  0  0  0  0
   -4.6441   -0.7697    0.0000 C   0  0  0  0  0  0  0  2  0  0  0  0
   -5.3585   -1.1822    0.0000 C   0  0  0  0  0  0  0  2  0  0  0  0
   -6.0730   -0.7697    0.0000 C   0  0  0  0  0  0  0  2  0  0  0  0
    2.5006    0.0553    0.0000 C   0  0  0  0  0  0  0  2  0  0  0  0
    3.2151    0.4678    0.0000 C   0  0  0  0  0  0  0  2  0  0  0  0
  1  2  1  0        0
  2  3  1  0        0
  3  4  2  0        0
  3  5  2  0        0
  3  6  1  0        0
  6  7  4  0        0
  7  8  4  0        0
  8  9  4  0        0
  9 10  1  0        0
 10 11  1  0        0
 11 12  1  0        0
 12 13  1  0        0
 13 14  1  0        0
 14 15  1  0        0
 15 16  1  0        0
 16 17  1  0        0
 17 18  1  0        0
 18 19  1  0        0
 19 20  1  0        0
 20 21  1  0        0
  9 22  4  0        0
 22 23  4  0        0
  6 23  4  0        0
M  END
>  <CAS RN>
25155300

>  <SMILES>
[Na]OS(=O)(=O)c1ccc(CCCCCCCCCCCC)cc1

>  <Measured or Estimated Log10(mmol/L)>
-1.562357674

$$$$

CDXL12

 11 11  0  0  0  0  0  0  0  0999 V2000
    0.0000    1.2375    0.0000 Cl  0  0  0  0  0  0  0  2  0  0  0  0
    0.0000    0.4125    0.0000 C   0  0  0  0  0  0  0  2  0  0  0  0
    0.7145    0.0000    0.0000 C   0  0  0  0  0  0  0  2  0  0  0  0
    0.7145   -0.8250    0.0000 C   0  0  0  0  0  0  0  2  0  0  0  0
    0.0000   -1.2375    0.0000 C   0  0  0  0  0  0  0  2  0  0  0  0
   -0.7145   -0.8250    0.0000 C   0  0  0  0  0  0  0  2  0  0  0  0
   -0.7145    0.0000    0.0000 C   0  0  0  0  0  0  0  2  0  0  0  0
   -1.4289    0.4125    0.0000 O   0  0  0  0  0  0  0  2  0  0  0  0
   -1.4289   -1.2375    0.0000 Cl  0  0  0  0  0  0  0  2  0  0  0  0
    1.4289   -1.2375    0.0000 Cl  0  0  0  0  0  0  0  2  0  0  0  0
    1.4289    0.4125    0.0000 Cl  0  0  0  0  0  0  0  2  0  0  0  0
  1  2  1  0        0
  2  3  4  0        0
  3  4  4  0        0
  4  5  4  0        0
  5  6  4  0        0
  6  7  4  0        0
  2  7  4  0        0
  7  8  1  0        0
  6  9  1  0        0
  4 10  1  0        0
  3 11  1  0        0
M  END
>  <CAS RN>
25167833

>  <SMILES>
Clc1c(c(cc(c1O)Cl)Cl)Cl

>  <Measured or Estimated Log10(mmol/L)>
-2.756761605

$$$$

CDXL12

 22 23  0  0  0  0  0  0  0  0999 V2000
    0.0000    0.4125    0.0000 N   0  0  0  0  0  0  0  2  0  0  0  0
    0.0000   -0.4125    0.0000 C   0  0  0  0  0  0  0  2  0  0  0  0
    0.7145   -0.8250    0.0000 N   0  0  0  0  0  0  0  2  0  0  0  0
    1.4289   -0.4125    0.0000 N   0  0  0  0  0  0  0  2  0  0  0  0
    2.1434   -0.8250    0.0000 C   0  0  0  0  0  0  0  2  0  0  0  0
    2.8579   -0.4125    0.0000 C   0  0  0  0  0  0  0  2  0  0  0  0
    2.8579    0.4125    0.0000 C   0  0  0  0  0  0  0  2  0  0  0  0
    3.5724    0.8250    0.0000 C   0  0  0  0  0  0  0  2  0  0  0  0
    4.2868    0.4125    0.0000 C   0  0  0  0  0  0  0  2  0  0  0  0
    5.0013    0.8250    0.0000 Cl  0  0  0  0  0  0  0  2  0  0  0  0
    4.2868   -0.4125    0.0000 C   0  0  0  0  0  0  0  2  0  0  0  0
    3.5724   -0.8250    0.0000 C   0  0  0  0  0  0  0  2  0  0  0  0
   -0.7145   -0.8250    0.0000 N   0  0  0  0  0  0  0  2  0  0  0  0
   -1.4289   -0.4125    0.0000 N   0  0  0  0  0  0  0  2  0  0  0  0
   -2.1434   -0.8250    0.0000 C   0  0  0  0  0  0  0  2  0  0  0  0
   -2.8579   -0.4125    0.0000 C   0  0  0  0  0  0  0  2  0  0  0  0
   -3.5724   -0.8250    0.0000 C   0  0  0  0  0  0  0  2  0  0  0  0
   -4.2868   -0.4125    0.0000 C   0  0  0  0  0  0  0  2  0  0  0  0
   -4.2868    0.4125    0.0000 C   0  0  0  0  0  0  0  2  0  0  0  0
   -5.0013    0.8250    0.0000 Cl  0  0  0  0  0  0  0  2  0  0  0  0
   -3.5724    0.8250    0.0000 C   0  0  0  0  0  0  0  2  0  0  0  0
   -2.8579    0.4125    0.0000 C   0  0  0  0  0  0  0  2  0  0  0  0
  1  2  2  0        0
  2  3  1  0        0
  3  4  1  0        0
  4  5  2  0        0
  5  6  1  0        0
  6  7  4  0        0
  7  8  4  0        0
  8  9  4  0        0
  9 10  1  0        0
  9 11  4  0        0
 11 12  4  0        0
  6 12  4  0        0
  2 13  1  0        0
 13 14  1  0        0
 14 15  2  0        0
 15 16  1  0        0
 16 17  4  0        0
 17 18  4  0        0
 18 19  4  0        0
 19 20  1  0        0
 19 21  4  0        0
 21 22  4  0        0
 16 22  4  0        0
M  END
>  <CAS RN>
25875518

>  <SMILES>
N=C(NN=Cc1ccc(Cl)cc1)NN=Cc1ccc(Cl)cc1

>  <Measured or Estimated Log10(mmol/L)>
-3.648958177

$$$$

CDXL12

 46 46  0  0  0  0  0  0  0  0999 V2000
   15.0039    0.8250    0.0000 C   0  0  0  0  0  0  0  2  0  0  0  0
   14.2894    0.4125    0.0000 C   0  0  0  0  0  0  0  2  0  0  0  0
   13.5749    0.8250    0.0000 C   0  0  0  0  0  0  0  2  0  0  0  0
   12.8605    0.4125    0.0000 C   0  0  0  0  0  0  0  2  0  0  0  0
   12.1460    0.8250    0.0000 C   0  0  0  0  0  0  0  2  0  0  0  0
   11.4315    0.4125    0.0000 C   0  0  0  0  0  0  0  2  0  0  0  0
   10.7171    0.8250    0.0000 C   0  0  0  0  0  0  0  2  0  0  0  0
   10.0026    0.4125    0.0000 C   0  0  0  0  0  0  0  2  0  0  0  0
    9.2881    0.8250    0.0000 C   0  0  0  0  0  0  0  2  0  0  0  0
    8.5737    0.4125    0.0000 C   0  0  0  0  0  0  0  2  0  0  0  0
    8.5737   -0.4125    0.0000 C   0  0  0  0  0  0  0  2  0  0  0  0
    7.8592   -0.8250    0.0000 C   0  0  0  0  0  0  0  2  0  0  0  0
    7.1447   -0.4125    0.0000 C   0  0  0  0  0  0  0  2  0  0  0  0
    6.4302   -0.8250    0.0000 O   0  0  0  0  0  0  0  2  0  0  0  0
    5.7158   -0.4125    0.0000 C   0  0  0  0  0  0  0  2  0  0  0  0
    5.0013   -0.8250    0.0000 C   0  0  0  0  0  0  0  2  0  0  0  0
    4.2868   -0.4125    0.0000 O   0  0  0  0  0  0  0  2  0  0  0  0
    3.5724   -0.8250    0.0000 C   0  0  0  0  0  0  0  2  0  0  0  0
    2.8579   -0.4125    0.0000 C   0  0  0  0  0  0  0  2  0  0  0  0
    2.1434   -0.8250    0.0000 O   0  0  0  0  0  0  0  2  0  0  0  0
    1.4289   -0.4125    0.0000 C   0  0  0  0  0  0  0  2  0  0  0  0
    0.7145   -0.8250    0.0000 C   0  0  0  0  0  0  0  2  0  0  0  0
    0.0000   -0.4125    0.0000 O   0  0  0  0  0  0  0  2  0  0  0  0
   -0.7145   -0.8250    0.0000 C   0  0  0  0  0  0  0  2  0  0  0  0
   -1.4289   -0.4125    0.0000 C   0  0  0  0  0  0  0  2  0  0  0  0
   -2.1434   -0.8250    0.0000 O   0  0  0  0  0  0  0  2  0  0  0  0
   -2.8579   -0.4125    0.0000 C   0  0  0  0  0  0  0  2  0  0  0  0
   -3.5724   -0.8250    0.0000 C   0  0  0  0  0  0  0  2  0  0  0  0
   -4.2868   -0.4125    0.0000 O   0  0  0  0  0  0  0  2  0  0  0  0
   -5.0013   -0.8250    0.0000 C   0  0  0  0  0  0  0  2  0  0  0  0
   -5.7158   -0.4125    0.0000 C   0  0  0  0  0  0  0  2  0  0  0  0
   -6.4302   -0.8250    0.0000 O   0  0  0  0  0  0  0  2  0  0  0  0
   -7.1447   -0.4125    0.0000 C   0  0  0  0  0  0  0  2  0  0  0  0
   -7.8592   -0.8250    0.0000 C   0  0  0  0  0  0  0  2  0  0  0  0
   -8.5737   -0.4125    0.0000 O   0  0  0  0  0  0  0  2  0  0  0  0
   -9.2881   -0.8250    0.0000 C   0  0  0  0  0  0  0  2  0  0  0  0
  -10.0026   -0.4125    0.0000 C   0  0  0  0  0  0  0  2  0  0  0  0
  -10.7171   -0.8250    0.0000 O   0  0  0  0  0  0  0  2  0  0  0  0
  -11.4315   -0.4125    0.0000 C   0  0  0  0  0  0  0  2  0  0  0  0
  -12.1460   -0.8250    0.0000 C   0  0  0  0  0  0  0  2  0  0  0  0
  -12.8605   -0.4125    0.0000 O   0  0  0  0  0  0  0  2  0  0  0  0
  -13.5749   -0.8250    0.0000 C   0  0  0  0  0  0  0  2  0  0  0  0
  -14.2894   -0.4125    0.0000 C   0  0  0  0  0  0  0  2  0  0  0  0
  -15.0039   -0.8250    0.0000 O   0  0  0  0  0  0  0  2  0  0  0  0
    7.1447    0.4125    0.0000 C   0  0  0  0  0  0  0  2  0  0  0  0
    7.8592    0.8250    0.0000 C   0  0  0  0  0  0  0  2  0  0  0  0
  1  2  1  0        0
  2  3  1  0        0
  3  4  1  0        0
  4  5  1  0        0
  5  6  1  0        0
  6  7  1  0        0
  7  8  1  0        0
  8  9  1  0        0
  9 10  1  0        0
 10 11  4  0        0
 11 12  4  0        0
 12 13  4  0        0
 13 14  1  0        0
 14 15  1  0        0
 15 16  1  0        0
 16 17  1  0        0
 17 18  1  0        0
 18 19  1  0        0
 19 20  1  0        0
 20 21  1  0        0
 21 22  1  0        0
 22 23  1  0        0
 23 24  1  0        0
 24 25  1  0        0
 25 26  1  0        0
 26 27  1  0        0
 27 28  1  0        0
 28 29  1  0        0
 29 30  1  0        0
 30 31  1  0        0
 31 32  1  0        0
 32 33  1  0        0
 33 34  1  0        0
 34 35  1  0        0
 35 36  1  0        0
 36 37  1  0        0
 37 38  1  0        0
 38 39  1  0        0
 39 40  1  0        0
 40 41  1  0        0
 41 42  1  0        0
 42 43  1  0        0
 43 44  1  0        0
 13 45  4  0        0
 45 46  4  0        0
 10 46  4  0        0
M  END
>  <CAS RN>
26027383

>  <SMILES>
CCCCCCCCCc1ccc(OCCOCCOCCOCCOCCOCCOCCOCCOCCOCCO)cc1

>  <Measured or Estimated Log10(mmol/L)>
-1.560055164

$$$$

CDXL12

 14 14  0  0  0  0  0  0  0  0999 V2000
    1.6782    0.8925    0.0000 O   0  0  0  0  0  0  0  2  0  0  0  0
    2.2913    0.3405    0.0000 C   0  0  0  0  0  0  0  2  0  0  0  0
    3.0982    0.5120    0.0000 C   0  0  0  0  0  0  0  2  0  0  0  0
    3.5107   -0.2025    0.0000 C   0  0  0  0  0  0  0  2  0  0  0  0
    2.9587   -0.8156    0.0000 S   0  0  0  0  0  0  0  2  0  0  0  0
    2.2050   -0.4800    0.0000 N   0  0  0  0  0  0  0  2  0  0  0  0
    1.4906   -0.8925    0.0000 C   0  0  0  0  0  0  0  2  0  0  0  0
    0.7761   -0.4800    0.0000 C   0  0  0  0  0  0  0  2  0  0  0  0
    0.0616   -0.8925    0.0000 C   0  0  0  0  0  0  0  2  0  0  0  0
   -0.6529   -0.4800    0.0000 C   0  0  0  0  0  0  0  2  0  0  0  0
   -1.3673   -0.8925    0.0000 C   0  0  0  0  0  0  0  2  0  0  0  0
   -2.0818   -0.4800    0.0000 C   0  0  0  0  0  0  0  2  0  0  0  0
   -2.7963   -0.8925    0.0000 C   0  0  0  0  0  0  0  2  0  0  0  0
   -3.5107   -0.4800    0.0000 C   0  0  0  0  0  0  0  2  0  0  0  0
  1  2  2  0        0
  2  3  1  0        0
  3  4  2  0        0
  4  5  1  0        0
  5  6  1  0        0
  2  6  1  0        0
  6  7  1  0        0
  7  8  1  0        0
  8  9  1  0        0
  9 10  1  0        0
 10 11  1  0        0
 11 12  1  0        0
 12 13  1  0        0
 13 14  1  0        0
M  END
>  <CAS RN>
26530201

>  <SMILES>
O=C1\C=C/SN1CCCCCCCC

>  <Measured or Estimated Log10(mmol/L)>
-3.058134666

$$$$

CDXL12

 24 23  0  0  0  0  0  0  0  0999 V2000
   -8.2164   -0.2062    0.0000 C   0  0  0  0  0  0  0  2  0  0  0  0
   -7.5019    0.2062    0.0000 C   0  0  0  0  0  0  0  2  0  0  0  0
   -6.7875   -0.2062    0.0000 C   0  0  0  0  0  0  0  2  0  0  0  0
   -6.0730    0.2062    0.0000 C   0  0  0  0  0  0  0  2  0  0  0  0
   -5.3585   -0.2062    0.0000 C   0  0  0  0  0  0  0  2  0  0  0  0
   -4.6441    0.2062    0.0000 C   0  0  0  0  0  0  0  2  0  0  0  0
   -3.9296   -0.2062    0.0000 C   0  0  0  0  0  0  0  2  0  0  0  0
   -3.2151    0.2062    0.0000 C   0  0  0  0  0  0  0  2  0  0  0  0
   -2.5006   -0.2062    0.0000 C   0  0  0  0  0  0  0  2  0  0  0  0
   -1.7862    0.2062    0.0000 C   0  0  0  0  0  0  0  2  0  0  0  0
   -1.0717   -0.2062    0.0000 C   0  0  0  0  0  0  0  2  0  0  0  0
   -0.3572    0.2062    0.0000 C   0  0  0  0  0  0  0  2  0  0  0  0
    0.3572   -0.2062    0.0000 C   0  0  0  0  0  0  0  2  0  0  0  0
    1.0717    0.2062    0.0000 C   0  0  0  0  0  0  0  2  0  0  0  0
    1.7862   -0.2062    0.0000 O   0  0  0  0  0  0  0  2  0  0  0  0
    2.5006    0.2062    0.0000 C   0  0  0  0  0  0  0  2  0  0  0  0
    3.2151   -0.2062    0.0000 C   0  0  0  0  0  0  0  2  0  0  0  0
    3.9296    0.2062    0.0000 O   0  0  0  0  0  0  0  2  0  0  0  0
    4.6441   -0.2062    0.0000 C   0  0  0  0  0  0  0  2  0  0  0  0
    5.3585    0.2062    0.0000 C   0  0  0  0  0  0  0  2  0  0  0  0
    6.0730   -0.2062    0.0000 O   0  0  0  0  0  0  0  2  0  0  0  0
    6.7875    0.2062    0.0000 C   0  0  0  0  0  0  0  2  0  0  0  0
    7.5019   -0.2062    0.0000 C   0  0  0  0  0  0  0  2  0  0  0  0
    8.2164    0.2062    0.0000 O   0  0  0  0  0  0  0  2  0  0  0  0
  1  2  1  0        0
  2  3  1  0        0
  3  4  1  0        0
  4  5  1  0        0
  5  6  1  0        0
  6  7  1  0        0
  7  8  1  0        0
  8  9  1  0        0
  9 10  1  0        0
 10 11  1  0        0
 11 12  1  0        0
 12 13  1  0        0
 13 14  1  0        0
 14 15  1  0        0
 15 16  1  0        0
 16 17  1  0        0
 17 18  1  0        0
 18 19  1  0        0
 19 20  1  0        0
 20 21  1  0        0
 21 22  1  0        0
 22 23  1  0        0
 23 24  1  0        0
M  END
>  <CAS RN>
26826302

>  <SMILES>
CCCCCCCCCCCCCCOCCOCCOCCO

>  <Measured or Estimated Log10(mmol/L)>
-2.676445541

$$$$

CDXL12

 26 28  0  0  0  0  0  0  0  0999 V2000
    0.7145   -1.4438    0.0000 O   0  0  0  0  0  0  0  2  0  0  0  0
    0.7145   -0.6188    0.0000 P   0  0  0  0  0  0  0  2  0  0  0  0
    0.0000   -0.2062    0.0000 O   0  0  0  0  0  0  0  2  0  0  0  0
   -0.7145   -0.6188    0.0000 C   0  0  0  0  0  0  0  2  0  0  0  0
   -1.4289   -0.2062    0.0000 C   0  0  0  0  0  0  0  2  0  0  0  0
   -2.1434   -0.6187    0.0000 C   0  0  0  0  0  0  0  2  0  0  0  0
   -2.1434   -1.4437    0.0000 C   0  0  0  0  0  0  0  2  0  0  0  0
   -1.4289   -1.8562    0.0000 C   0  0  0  0  0  0  0  2  0  0  0  0
   -0.7145   -1.4438    0.0000 C   0  0  0  0  0  0  0  2  0  0  0  0
   -2.8579   -0.2062    0.0000 C   0  0  0  0  0  0  0  2  0  0  0  0
   -2.8579    0.6188    0.0000 C   0  0  0  0  0  0  0  2  0  0  0  0
   -3.5724   -0.6187    0.0000 C   0  0  0  0  0  0  0  2  0  0  0  0
    1.4289   -0.2062    0.0000 O   0  0  0  0  0  0  0  2  0  0  0  0
    2.1434   -0.6188    0.0000 C   0  0  0  0  0  0  0  2  0  0  0  0
    2.8579   -0.2062    0.0000 C   0  0  0  0  0  0  0  2  0  0  0  0
    3.5724   -0.6188    0.0000 C   0  0  0  0  0  0  0  2  0  0  0  0
    3.5724   -1.4438    0.0000 C   0  0  0  0  0  0  0  2  0  0  0  0
    2.8579   -1.8563    0.0000 C   0  0  0  0  0  0  0  2  0  0  0  0
    2.1434   -1.4438    0.0000 C   0  0  0  0  0  0  0  2  0  0  0  0
    0.7145    0.2062    0.0000 O   0  0  0  0  0  0  0  2  0  0  0  0
    0.0000    0.6188    0.0000 C   0  0  0  0  0  0  0  2  0  0  0  0
   -0.7145    0.2062    0.0000 C   0  0  0  0  0  0  0  2  0  0  0  0
   -1.4289    0.6187    0.0000 C   0  0  0  0  0  0  0  2  0  0  0  0
   -1.4289    1.4438    0.0000 C   0  0  0  0  0  0  0  2  0  0  0  0
   -0.7145    1.8563    0.0000 C   0  0  0  0  0  0  0  2  0  0  0  0
    0.0000    1.4438    0.0000 C   0  0  0  0  0  0  0  2  0  0  0  0
  1  2  2  0        0
  2  3  1  0        0
  3  4  1  0        0
  4  5  4  0        0
  5  6  4  0        0
  6  7  4  0        0
  7  8  4  0        0
  8  9  4  0        0
  4  9  4  0        0
  6 10  1  0        0
 10 11  1  0        0
 10 12  1  0        0
  2 13  1  0        0
 13 14  1  0        0
 14 15  4  0        0
 15 16  4  0        0
 16 17  4  0        0
 17 18  4  0        0
 18 19  4  0        0
 14 19  4  0        0
  2 20  1  0        0
 20 21  1  0        0
 21 22  4  0        0
 22 23  4  0        0
 23 24  4  0        0
 24 25  4  0        0
 25 26  4  0        0
 21 26  4  0        0
M  END
>  <CAS RN>
28108998

>  <SMILES>
O=P(Oc1cc(ccc1)C(C)C)(Oc1ccccc1)Oc1ccccc1

>  <Measured or Estimated Log10(mmol/L)>
-3.168343066

$$$$

CDXL12

 17 18  0  0  0  0  0  0  0  0999 V2000
    0.7697    0.2062    0.0000 N   0  0  0  0  0  0  0  2  0  0  0  0
    0.0553   -0.2062    0.0000 C   0  0  0  0  0  0  0  2  0  0  0  0
    0.0553   -1.0312    0.0000 S   0  0  0  0  0  0  0  2  0  0  0  0
   -0.6592   -1.4437    0.0000 C   0  0  0  0  0  0  0  2  0  0  0  0
   -0.6592    0.2062    0.0000 N   0  0  0  0  0  0  0  2  0  0  0  0
   -0.6592    1.0312    0.0000 C   0  0  0  0  0  0  0  2  0  0  0  0
   -1.3737    1.4437    0.0000 N   0  0  0  0  0  0  0  2  0  0  0  0
   -2.0881    1.0312    0.0000 C   0  0  0  0  0  0  0  2  0  0  0  0
   -2.5006    0.3168    0.0000 C   0  0  0  0  0  0  0  2  0  0  0  0
   -2.9131    1.0312    0.0000 C   0  0  0  0  0  0  0  2  0  0  0  0
    0.0553    1.4437    0.0000 N   0  0  0  0  0  0  0  2  0  0  0  0
    0.7697    1.0312    0.0000 C   0  0  0  0  0  0  0  2  0  0  0  0
    1.4842    1.4437    0.0000 N   0  0  0  0  0  0  0  2  0  0  0  0
    2.1987    1.0312    0.0000 C   0  0  0  0  0  0  0  2  0  0  0  0
    2.9131    0.6187    0.0000 C   0  0  0  0  0  0  0  2  0  0  0  0
    2.1987    0.2062    0.0000 C   0  0  0  0  0  0  0  2  0  0  0  0
    2.9131    1.4437    0.0000 C   0  0  0  0  0  0  0  2  0  0  0  0
  1  2  4  0        0
  2  3  1  0        0
  3  4  1  0        0
  2  5  4  0        0
  5  6  4  0        0
  6  7  1  0        0
  7  8  1  0        0
  8  9  1  0        0
  9 10  1  0        0
  8 10  1  0        0
  6 11  4  0        0
 11 12  4  0        0
  1 12  4  0        0
 12 13  1  0        0
 13 14  1  0        0
 14 15  1  0        0
 14 16  1  0        0
 14 17  1  0        0
M  END
>  <CAS RN>
28159980

>  <SMILES>
n1c(SC)nc(NC2CC2)nc1NC(C)(C)C

>  <Measured or Estimated Log10(mmol/L)>
-1.484680527

$$$$

CDXL12

 12 13  0  0  0  0  0  0  0  0999 V2000
    2.1434    0.4125    0.0000 K   0  0  0  0  0  0  0  2  0  0  0  0
    1.4289   -0.0000    0.0000 O   0  0  0  0  0  0  0  2  0  0  0  0
    0.7145    0.4125    0.0000 C   0  0  0  0  0  0  0  2  0  0  0  0
    0.7145    1.2375    0.0000 O   0  0  0  0  0  0  0  2  0  0  0  0
    0.0000   -0.0000    0.0000 C   0  0  0  0  0  0  0  2  0  0  0  0
    0.0000   -0.8250    0.0000 O   0  0  0  0  0  0  0  2  0  0  0  0
   -0.7145   -1.2375    0.0000 Sb  0  0  0  0  0  0  0  2  0  0  0  0
   -1.0510   -0.4125    0.0000 O   0  0  0  0  0  0  0  2  0  0  0  0
   -0.7145    0.4125    0.0000 C   0  0  0  0  0  0  0  2  0  0  0  0
   -1.4289   -0.0000    0.0000 C   0  0  0  0  0  0  0  2  0  0  0  0
   -2.1434    0.4125    0.0000 O   0  0  0  0  0  0  0  2  0  0  0  0
   -1.4289   -0.8250    0.0000 O   0  0  0  0  0  0  0  2  0  0  0  0
  1  2  1  0        0
  2  3  1  0        0
  3  4  2  0        0
  3  5  1  0        0
  5  6  1  0        0
  6  7  1  0        0
  7  8  1  0        0
  8  9  1  0        0
  5  9  1  0        0
  9 10  1  0        0
 10 11  2  0        0
 10 12  1  0        0
  7 12  1  0        0
M  END
>  <CAS RN>
28300745

>  <SMILES>
[K]OC(=O)C1O[Sb]2OC1C(=O)O2

>  <Measured or Estimated Log10(mmol/L)>
-1.732651383

$$$$

CDXL12

 19 19  0  0  0  0  0  0  0  0999 V2000
   -0.3572    1.4438    0.0000 C   0  0  0  0  0  0  0  2  0  0  0  0
    0.3572    1.8562    0.0000 C   0  0  0  0  0  0  0  2  0  0  0  0
    1.0717    1.4438    0.0000 N   0  0  0  0  0  0  0  2  0  0  0  0
    1.7862    1.8563    0.0000 C   0  0  0  0  0  0  0  2  0  0  0  0
    2.5006    1.4438    0.0000 C   0  0  0  0  0  0  0  2  0  0  0  0
    1.0717    0.6188    0.0000 C   0  0  0  0  0  0  0  2  0  0  0  0
    1.7862    0.2062    0.0000 N   0  0  0  0  0  0  0  2  0  0  0  0
    1.7862   -0.6188    0.0000 C   0  0  0  0  0  0  0  2  0  0  0  0
    2.5006   -1.0313    0.0000 C   0  0  0  0  0  0  0  2  0  0  0  0
    1.0717   -1.0313    0.0000 C   0  0  0  0  0  0  0  2  0  0  0  0
    0.3572   -0.6188    0.0000 C   0  0  0  0  0  0  0  2  0  0  0  0
   -0.3572   -1.0313    0.0000 O   0  0  0  0  0  0  0  2  0  0  0  0
   -1.0717   -0.6188    0.0000 P   0  0  0  0  0  0  0  2  0  0  0  0
   -1.0717    0.2062    0.0000 S   0  0  0  0  0  0  0  2  0  0  0  0
   -1.7862   -1.0313    0.0000 O   0  0  0  0  0  0  0  2  0  0  0  0
   -2.5006   -0.6188    0.0000 C   0  0  0  0  0  0  0  2  0  0  0  0
   -1.0717   -1.4438    0.0000 O   0  0  0  0  0  0  0  2  0  0  0  0
   -1.7862   -1.8563    0.0000 C   0  0  0  0  0  0  0  2  0  0  0  0
    0.3572    0.2062    0.0000 N   0  0  0  0  0  0  0  2  0  0  0  0
  1  2  1  0        0
  2  3  1  0        0
  3  4  1  0        0
  4  5  1  0        0
  3  6  1  0        0
  6  7  4  0        0
  7  8  4  0        0
  8  9  1  0        0
  8 10  4  0        0
 10 11  4  0        0
 11 12  1  0        0
 12 13  1  0        0
 13 14  2  0        0
 13 15  1  0        0
 15 16  1  0        0
 13 17  1  0        0
 17 18  1  0        0
 11 19  4  0        0
  6 19  4  0        0
M  END
>  <CAS RN>
29232937

>  <SMILES>
CCN(CC)c1nc(C)cc(OP(=S)(OC)OC)n1

>  <Measured or Estimated Log10(mmol/L)>
-3.459285187

$$$$

CDXL12

 12 11  0  0  0  0  0  0  0  0999 V2000
    3.9296    0.2062    0.0000 N   0  0  0  0  0  0  0  2  0  0  0  0
    3.2151   -0.2062    0.0000 O   0  0  0  0  0  0  0  2  0  0  0  0
    2.5006    0.2062    0.0000 C   0  0  0  0  0  0  0  2  0  0  0  0
    1.7862   -0.2062    0.0000 C   0  0  0  0  0  0  0  2  0  0  0  0
    1.0717    0.2062    0.0000 C   0  0  0  0  0  0  0  2  0  0  0  0
    0.3572   -0.2062    0.0000 C   0  0  0  0  0  0  0  2  0  0  0  0
   -0.3572    0.2062    0.0000 C   0  0  0  0  0  0  0  2  0  0  0  0
   -1.0717   -0.2062    0.0000 C   0  0  0  0  0  0  0  2  0  0  0  0
   -1.7862    0.2062    0.0000 C   0  0  0  0  0  0  0  2  0  0  0  0
   -2.5006   -0.2062    0.0000 C   0  0  0  0  0  0  0  2  0  0  0  0
   -3.2151    0.2062    0.0000 C   0  0  0  0  0  0  0  2  0  0  0  0
   -3.9296   -0.2062    0.0000 C   0  0  0  0  0  0  0  2  0  0  0  0
  1  2  1  0        0
  2  3  1  0        0
  3  4  1  0        0
  4  5  1  0        0
  5  6  1  0        0
  6  7  1  0        0
  7  8  1  0        0
  8  9  1  0        0
  9 10  1  0        0
 10 11  1  0        0
 11 12  1  0        0
M  END
>  <CAS RN>
29812791

>  <SMILES>
NOCCCCCCCCCC

>  <Measured or Estimated Log10(mmol/L)>
-3.357984963

$$$$

CDXL12

 10  9  0  0  0  0  0  0  0  0999 V2000
    1.7862    0.2062    0.0000 C   0  0  0  0  0  0  0  2  0  0  0  0
    1.0717   -0.2062    0.0000 O   0  0  0  0  0  0  0  2  0  0  0  0
    0.3572    0.2062    0.0000 P   0  0  0  0  0  0  0  2  0  0  0  0
    0.3572    1.0313    0.0000 O   0  0  0  0  0  0  0  2  0  0  0  0
   -0.3572   -0.2062    0.0000 N   0  0  0  0  0  0  0  2  0  0  0  0
   -1.0717    0.2062    0.0000 C   0  0  0  0  0  0  0  2  0  0  0  0
   -1.7862   -0.2062    0.0000 C   0  0  0  0  0  0  0  2  0  0  0  0
   -1.0717    1.0313    0.0000 O   0  0  0  0  0  0  0  2  0  0  0  0
    0.3572   -0.6188    0.0000 S   0  0  0  0  0  0  0  2  0  0  0  0
    1.0717   -1.0313    0.0000 C   0  0  0  0  0  0  0  2  0  0  0  0
  1  2  1  0        0
  2  3  1  0        0
  3  4  2  0        0
  3  5  1  0        0
  5  6  1  0        0
  6  7  1  0        0
  6  8  2  0        0
  3  9  1  0        0
  9 10  1  0        0
M  END
>  <CAS RN>
30560191

>  <SMILES>
COP(=O)(NC(C)=O)SC

>  <Measured or Estimated Log10(mmol/L)>
-0.435475584

$$$$

CDXL12

 18 17  0  0  0  0  0  0  0  0999 V2000
   -6.0730   -0.2062    0.0000 C   0  0  0  0  0  0  0  2  0  0  0  0
   -5.3585    0.2062    0.0000 C   0  0  0  0  0  0  0  2  0  0  0  0
   -4.6441   -0.2062    0.0000 C   0  0  0  0  0  0  0  2  0  0  0  0
   -3.9296    0.2062    0.0000 C   0  0  0  0  0  0  0  2  0  0  0  0
   -3.2151   -0.2062    0.0000 C   0  0  0  0  0  0  0  2  0  0  0  0
   -2.5006    0.2062    0.0000 C   0  0  0  0  0  0  0  2  0  0  0  0
   -1.7862   -0.2062    0.0000 C   0  0  0  0  0  0  0  2  0  0  0  0
   -1.0717    0.2062    0.0000 C   0  0  0  0  0  0  0  2  0  0  0  0
   -0.3572   -0.2062    0.0000 C   0  0  0  0  0  0  0  2  0  0  0  0
    0.3572    0.2062    0.0000 C   0  0  0  0  0  0  0  2  0  0  0  0
    1.0717   -0.2062    0.0000 C   0  0  0  0  0  0  0  2  0  0  0  0
    1.7862    0.2062    0.0000 C   0  0  0  0  0  0  0  2  0  0  0  0
    2.5006   -0.2062    0.0000 C   0  0  0  0  0  0  0  2  0  0  0  0
    3.2151    0.2062    0.0000 C   0  0  0  0  0  0  0  2  0  0  0  0
    3.9296   -0.2062    0.0000 O   0  0  0  0  0  0  0  2  0  0  0  0
    4.6441    0.2062    0.0000 C   0  0  0  0  0  0  0  2  0  0  0  0
    5.3585   -0.2062    0.0000 C   0  0  0  0  0  0  0  2  0  0  0  0
    6.0730    0.2062    0.0000 O   0  0  0  0  0  0  0  2  0  0  0  0
  1  2  1  0        0
  2  3  1  0        0
  3  4  1  0        0
  4  5  1  0        0
  5  6  1  0        0
  6  7  1  0        0
  7  8  1  0        0
  8  9  1  0        0
  9 10  1  0        0
 10 11  1  0        0
 11 12  1  0        0
 12 13  1  0        0
 13 14  1  0        0
 14 15  1  0        0
 15 16  1  0        0
 16 17  1  0        0
 17 18  1  0        0
M  END
>  <CAS RN>
32241411

>  <SMILES>
CCCCCCCCCCCCCCOCCO

>  <Measured or Estimated Log10(mmol/L)>
-2.493291714

$$$$

CDXL12

  9 10  0  0  0  0  0  0  0  0999 V2000
   -1.2695   -0.3923    0.0000 C   0  0  0  0  0  0  0  2  0  0  0  0
   -0.7846   -1.0597    0.0000 C   0  0  0  0  0  0  0  2  0  0  0  0
    0.0000   -0.8048    0.0000 C   0  0  0  0  0  0  0  2  0  0  0  0
    0.7846   -1.0597    0.0000 C   0  0  0  0  0  0  0  2  0  0  0  0
    1.2695   -0.3923    0.0000 C   0  0  0  0  0  0  0  2  0  0  0  0
    0.7846    0.2751    0.0000 C   0  0  0  0  0  0  0  2  0  0  0  0
    0.0000    0.0202    0.0000 C   0  0  0  0  0  0  0  2  0  0  0  0
   -0.7846    0.2751    0.0000 C   0  0  0  0  0  0  0  2  0  0  0  0
    1.0396    1.0597    0.0000 C   0  0  0  0  0  0  0  2  0  0  0  0
  1  2  1  0        0
  2  3  1  0        0
  3  4  1  0        0
  4  5  1  0        0
  5  6  1  0        0
  6  7  1  0        0
  3  7  1  0        0
  7  8  1  0        0
  1  8  1  0        0
  6  9  1  0        0
M  END
>  <CAS RN>
32273771

>  <SMILES>
C1CC2CCC(C2C1)C

>  <Measured or Estimated Log10(mmol/L)>
-1.25

$$$$

CDXL12

  9 10  0  0  0  0  0  0  0  0999 V2000
   -1.2695   -0.3923    0.0000 C   0  0  0  0  0  0  0  2  0  0  0  0
   -0.7846    0.2751    0.0000 C   0  0  0  0  0  0  0  2  0  0  0  0
    0.0000    0.0202    0.0000 N   0  0  0  0  0  0  0  2  0  0  0  0
    0.0000   -0.8048    0.0000 C   0  0  0  0  0  0  0  2  0  0  0  0
   -0.7846   -1.0597    0.0000 N   0  0  0  0  0  0  0  2  0  0  0  0
    0.7846   -1.0597    0.0000 S   0  0  0  0  0  0  0  2  0  0  0  0
    1.2695   -0.3923    0.0000 S   0  0  0  0  0  0  0  2  0  0  0  0
    0.7846    0.2751    0.0000 C   0  0  0  0  0  0  0  2  0  0  0  0
    1.0396    1.0597    0.0000 S   0  0  0  0  0  0  0  2  0  0  0  0
  1  2  1  0        0
  2  3  1  0        0
  3  4  1  0        0
  4  5  2  0        0
  1  5  1  0        0
  4  6  1  0        0
  6  7  1  0        0
  7  8  1  0        0
  3  8  1  0        0
  8  9  2  0        0
M  END
>  <CAS RN>
33813206

>  <SMILES>
C/1CN2/C(=N1)/SSC2=S

>  <Measured or Estimated Log10(mmol/L)>
-2.923988674

$$$$

CDXL12

 31 32  0  0  0  0  0  0  0  0999 V2000
   -3.5724   -0.8250    0.0000 C   0  0  0  0  0  0  0  2  0  0  0  0
   -4.2868   -0.4125    0.0000 C   0  0  0  0  0  0  0  2  0  0  0  0
   -4.2868    0.4125    0.0000 C   0  0  0  0  0  0  0  2  0  0  0  0
   -5.0013    0.8250    0.0000 Br  0  0  0  0  0  0  0  2  0  0  0  0
   -3.5724    0.8250    0.0000 C   0  0  0  0  0  0  0  2  0  0  0  0
   -2.8579    0.4125    0.0000 C   0  0  0  0  0  0  0  2  0  0  0  0
   -2.8579   -0.4125    0.0000 C   0  0  0  0  0  0  0  2  0  0  0  0
   -2.1434   -0.8250    0.0000 C   0  0  0  0  0  0  0  2  0  0  0  0
   -1.4289   -0.4125    0.0000 N   0  0  0  0  0  0  0  2  0  0  0  0
   -1.4289    0.4125    0.0000 C   0  0  0  0  0  0  0  2  0  0  0  0
   -2.1434    0.8250    0.0000 N   0  0  0  0  0  0  0  2  0  0  0  0
   -2.1434    1.6500    0.0000 C   0  0  0  0  0  0  0  2  0  0  0  0
   -1.4289    2.0625    0.0000 C   0  0  0  0  0  0  0  2  0  0  0  0
   -0.7145    1.6500    0.0000 C   0  0  0  0  0  0  0  2  0  0  0  0
   -0.7145    0.8250    0.0000 C   0  0  0  0  0  0  0  2  0  0  0  0
   -0.7145   -0.8250    0.0000 C   0  0  0  0  0  0  0  2  0  0  0  0
    0.0000   -0.4125    0.0000 C   0  0  0  0  0  0  0  2  0  0  0  0
    0.7145   -0.8250    0.0000 N   0  0  0  0  0  0  0  2  0  0  0  0
    0.7145   -1.6500    0.0000 C   0  0  0  0  0  0  0  2  0  0  0  0
    1.4289   -2.0625    0.0000 C   0  0  0  0  0  0  0  2  0  0  0  0
    0.7145    0.0000    0.0000 C   0  0  0  0  0  0  0  2  0  0  0  0
    1.4289   -0.4125    0.0000 O   0  0  0  0  0  0  0  2  0  0  0  0
    2.1434   -0.8250    0.0000 C   0  0  0  0  0  0  0  2  0  0  0  0
    2.1434   -1.6500    0.0000 O   0  0  0  0  0  0  0  2  0  0  0  0
    2.8579   -0.4125    0.0000 C   0  0  0  0  0  0  0  2  0  0  0  0
    2.8579    0.4125    0.0000 H   0  0  0  0  0  0  0  2  0  0  0  0
    3.5724   -0.8250    0.0000 C   0  0  0  0  0  0  0  2  0  0  0  0
    3.5724   -1.6500    0.0000 H   0  0  0  0  0  0  0  2  0  0  0  0
    4.2868   -0.4125    0.0000 C   0  0  0  0  0  0  0  2  0  0  0  0
    4.2868    0.4125    0.0000 O   0  0  0  0  0  0  0  2  0  0  0  0
    5.0013   -0.8250    0.0000 O   0  0  0  0  0  0  0  2  0  0  0  0
  1  2  4  0        0
  2  3  4  0        0
  3  4  1  0        0
  3  5  4  0        0
  5  6  4  0        0
  6  7  4  0        0
  1  7  4  0        0
  7  8  1  0        0
  8  9  1  0        0
  9 10  1  0        0
 10 11  4  0        0
 11 12  4  0        0
 12 13  4  0        0
 13 14  4  0        0
 14 15  4  0        0
 10 15  4  0        0
  9 16  1  0        0
 16 17  1  0        0
 17 18  1  0        0
 18 19  1  0        0
 19 20  1  0        0
 18 21  1  0        0
 18 22  1  0        0
 22 23  1  0        0
 23 24  2  0        0
 23 25  1  0        0
 25 26  1  0        0
 25 27  2  0        0
 27 28  1  0        0
 27 29  1  0        0
 29 30  2  0        0
 29 31  1  0        0
M  END
>  <CAS RN>
33855479

>  <SMILES>
c1cc(Br)ccc1CN(c1ncccc1)CCN(CC)(C)OC(=O)C([H])=C([H])C(=O)O

>  <Measured or Estimated Log10(mmol/L)>
-1.832131343

$$$$

CDXL12

 21 22  0  0  0  0  0  0  0  0999 V2000
    0.0000    1.0313    0.0000 O   0  0  0  0  0  0  0  2  0  0  0  0
    0.0000    0.2062    0.0000 C   0  0  0  0  0  0  0  2  0  0  0  0
   -0.7145   -0.2062    0.0000 N   0  0  0  0  0  0  0  2  0  0  0  0
   -1.4289    0.2062    0.0000 C   0  0  0  0  0  0  0  2  0  0  0  0
   -1.4289    1.0313    0.0000 O   0  0  0  0  0  0  0  2  0  0  0  0
   -2.1434   -0.2062    0.0000 C   0  0  0  0  0  0  0  2  0  0  0  0
   -2.1434   -1.0312    0.0000 C   0  0  0  0  0  0  0  2  0  0  0  0
   -1.4289   -1.4437    0.0000 F   0  0  0  0  0  0  0  2  0  0  0  0
   -2.8579   -1.4438    0.0000 C   0  0  0  0  0  0  0  2  0  0  0  0
   -3.5724   -1.0313    0.0000 C   0  0  0  0  0  0  0  2  0  0  0  0
   -3.5724   -0.2062    0.0000 C   0  0  0  0  0  0  0  2  0  0  0  0
   -2.8579    0.2062    0.0000 C   0  0  0  0  0  0  0  2  0  0  0  0
   -2.8579    1.0313    0.0000 F   0  0  0  0  0  0  0  2  0  0  0  0
    0.7145   -0.2062    0.0000 N   0  0  0  0  0  0  0  2  0  0  0  0
    1.4289    0.2062    0.0000 C   0  0  0  0  0  0  0  2  0  0  0  0
    1.4289    1.0313    0.0000 C   0  0  0  0  0  0  0  2  0  0  0  0
    2.1434    1.4438    0.0000 C   0  0  0  0  0  0  0  2  0  0  0  0
    2.8579    1.0313    0.0000 C   0  0  0  0  0  0  0  2  0  0  0  0
    2.8579    0.2062    0.0000 C   0  0  0  0  0  0  0  2  0  0  0  0
    2.1434   -0.2062    0.0000 C   0  0  0  0  0  0  0  2  0  0  0  0
    3.5724    1.4438    0.0000 Cl  0  0  0  0  0  0  0  2  0  0  0  0
  1  2  2  0        0
  2  3  1  0        0
  3  4  1  0        0
  4  5  2  0        0
  4  6  1  0        0
  6  7  4  0        0
  7  8  1  0        0
  7  9  4  0        0
  9 10  4  0        0
 10 11  4  0        0
 11 12  4  0        0
  6 12  4  0        0
 12 13  1  0        0
  2 14  1  0        0
 14 15  1  0        0
 15 16  4  0        0
 16 17  4  0        0
 17 18  4  0        0
 18 19  4  0        0
 19 20  4  0        0
 15 20  4  0        0
 18 21  1  0        0
M  END
>  <CAS RN>
35367385

>  <SMILES>
O=C(NC(=O)c1c(F)cccc1F)Nc1ccc(cc1)Cl

>  <Measured or Estimated Log10(mmol/L)>
-4.769113771

$$$$

CDXL12

 14 14  0  0  0  0  0  0  0  0999 V2000
   -1.4289   -0.8250    0.0000 C   0  0  0  0  0  0  0  2  0  0  0  0
   -0.7145   -0.4125    0.0000 C   0  0  0  0  0  0  0  2  0  0  0  0
    0.0000   -0.8250    0.0000 C   0  0  0  0  0  0  0  2  0  0  0  0
    0.0000   -1.6500    0.0000 N   0  0  0  0  0  0  0  2  0  0  0  0
    0.7145   -0.4125    0.0000 C   0  0  0  0  0  0  0  2  0  0  0  0
    0.7145    0.4125    0.0000 C   0  0  0  0  0  0  0  2  0  0  0  0
    0.0000    0.8250    0.0000 C   0  0  0  0  0  0  0  2  0  0  0  0
   -0.7145    0.4125    0.0000 C   0  0  0  0  0  0  0  2  0  0  0  0
   -1.4289    0.8250    0.0000 N   0  0  0  0  0  0  0  2  0  0  0  0
   -1.4289    1.6500    0.0000 O   0  0  0  0  0  0  0  2  0  0  0  0
   -2.1434    0.4125    0.0000 O   0  0  0  0  0  0  0  2  0  0  0  0
    1.4289    0.8250    0.0000 N   0  0  0  0  0  0  0  2  0  0  0  0
    1.4289    1.6500    0.0000 O   0  0  0  0  0  0  0  2  0  0  0  0
    2.1434    0.4125    0.0000 O   0  0  0  0  0  0  0  2  0  0  0  0
  1  2  1  0        0
  2  3  4  0        0
  3  4  1  0        0
  3  5  4  0        0
  5  6  4  0        0
  6  7  4  0        0
  7  8  4  0        0
  2  8  4  0        0
  8  9  1  0        0
  9 10  2  0        0
  9 11  2  0        0
  6 12  1  0        0
 12 13  2  0        0
 12 14  2  0        0
M  END
>  <CAS RN>
35572782

>  <SMILES>
Cc1c(N)cc(cc1N(=O)=O)N(=O)=O

>  <Measured or Estimated Log10(mmol/L)>
-2.0378059

$$$$

CDXL12

 17 18  0  0  0  0  0  0  0  0999 V2000
    0.0000    0.2062    0.0000 N   0  0  0  0  0  0  0  2  0  0  0  0
   -0.7145   -0.2062    0.0000 C   0  0  0  0  0  0  0  2  0  0  0  0
   -0.7145   -1.0312    0.0000 N   0  0  0  0  0  0  0  2  0  0  0  0
   -1.4289   -1.4437    0.0000 N   0  0  0  0  0  0  0  2  0  0  0  0
   -1.4289    0.2062    0.0000 N   0  0  0  0  0  0  0  2  0  0  0  0
   -1.4289    1.0312    0.0000 C   0  0  0  0  0  0  0  2  0  0  0  0
   -2.1434    1.4437    0.0000 N   0  0  0  0  0  0  0  2  0  0  0  0
   -2.8579    1.0312    0.0000 N   0  0  0  0  0  0  0  2  0  0  0  0
   -0.7145    1.4437    0.0000 N   0  0  0  0  0  0  0  2  0  0  0  0
    0.0000    1.0312    0.0000 C   0  0  0  0  0  0  0  2  0  0  0  0
    0.7145    1.4437    0.0000 N   0  0  0  0  0  0  0  2  0  0  0  0
    1.4289    1.0312    0.0000 C   0  0  0  0  0  0  0  2  0  0  0  0
    2.1434    1.4437    0.0000 C   0  0  0  0  0  0  0  2  0  0  0  0
    2.8579    1.0312    0.0000 C   0  0  0  0  0  0  0  2  0  0  0  0
    2.8579    0.2062    0.0000 C   0  0  0  0  0  0  0  2  0  0  0  0
    2.1434   -0.2063    0.0000 C   0  0  0  0  0  0  0  2  0  0  0  0
    1.4289    0.2062    0.0000 C   0  0  0  0  0  0  0  2  0  0  0  0
  1  2  4  0        0
  2  3  1  0        0
  3  4  1  0        0
  2  5  4  0        0
  5  6  4  0        0
  6  7  1  0        0
  7  8  1  0        0
  6  9  4  0        0
  9 10  4  0        0
  1 10  4  0        0
 10 11  1  0        0
 11 12  1  0        0
 12 13  4  0        0
 13 14  4  0        0
 14 15  4  0        0
 15 16  4  0        0
 16 17  4  0        0
 12 17  4  0        0
M  END
>  <CAS RN>
35968015

>  <SMILES>
n1c(NN)nc(NN)nc1Nc1ccccc1

>  <Measured or Estimated Log10(mmol/L)>
-1.663586851

$$$$

CDXL12

 22 21  0  0  0  0  0  0  0  0999 V2000
    4.6441    0.6187    0.0000 C   0  0  0  0  0  0  0  2  0  0  0  0
    4.6441   -0.2062    0.0000 C   0  0  0  0  0  0  0  2  0  0  0  0
    5.3585   -0.6188    0.0000 C   0  0  0  0  0  0  0  2  0  0  0  0
    3.9296   -0.6188    0.0000 O   0  0  0  0  0  0  0  2  0  0  0  0
    3.2151   -0.2062    0.0000 C   0  0  0  0  0  0  0  2  0  0  0  0
    3.2151    0.6187    0.0000 O   0  0  0  0  0  0  0  2  0  0  0  0
    2.5006   -0.6188    0.0000 C   0  0  0  0  0  0  0  2  0  0  0  0
    1.7862   -0.2062    0.0000 C   0  0  0  0  0  0  0  2  0  0  0  0
    1.7862    0.6187    0.0000 C   0  0  0  0  0  0  0  2  0  0  0  0
    1.0717   -0.6188    0.0000 C   0  0  0  0  0  0  0  2  0  0  0  0
    0.3572   -0.2062    0.0000 C   0  0  0  0  0  0  0  2  0  0  0  0
   -0.3572   -0.6188    0.0000 C   0  0  0  0  0  0  0  2  0  0  0  0
   -1.0717   -0.2062    0.0000 C   0  0  0  0  0  0  0  2  0  0  0  0
   -1.0717    0.6188    0.0000 C   0  0  0  0  0  0  0  2  0  0  0  0
   -1.7862   -0.6187    0.0000 C   0  0  0  0  0  0  0  2  0  0  0  0
   -2.5006   -0.2062    0.0000 C   0  0  0  0  0  0  0  2  0  0  0  0
   -3.2151   -0.6187    0.0000 C   0  0  0  0  0  0  0  2  0  0  0  0
   -3.9296   -0.2062    0.0000 C   0  0  0  0  0  0  0  2  0  0  0  0
   -4.3421    0.5082    0.0000 C   0  0  0  0  0  0  0  2  0  0  0  0
   -3.5171    0.5082    0.0000 C   0  0  0  0  0  0  0  2  0  0  0  0
   -4.6441   -0.6187    0.0000 O   0  0  0  0  0  0  0  2  0  0  0  0
   -5.3585   -0.2062    0.0000 C   0  0  0  0  0  0  0  2  0  0  0  0
  1  2  1  0        0
  2  3  1  0        0
  2  4  1  0        0
  4  5  1  0        0
  5  6  2  0        0
  5  7  1  0        0
  7  8  2  0        0
  8  9  1  0        0
  8 10  1  0        0
 10 11  2  0        0
 11 12  1  0        0
 12 13  1  0        0
 13 14  1  0        0
 13 15  1  0        0
 15 16  1  0        0
 16 17  1  0        0
 17 18  1  0        0
 18 19  1  0        0
 18 20  1  0        0
 18 21  1  0        0
 21 22  1  0        0
M  END
>  <CAS RN>
36557274

>  <SMILES>
CC(C)OC(=O)\C=C(/C)\C=C\CC(C)CCCC(C)(C)OC

>  <Measured or Estimated Log10(mmol/L)>
-2.924935417

$$$$

CDXL12

 17 16  0  0  0  0  0  0  0  0999 V2000
   -0.1429    1.4289    0.0000 O   0  0  0  0  0  0  0  2  0  0  0  0
    0.2696    0.7145    0.0000 C   0  0  0  0  0  0  0  2  0  0  0  0
    1.0946    0.7145    0.0000 O   0  0  0  0  0  0  0  2  0  0  0  0
   -0.1429    0.0000    0.0000 C   0  0  0  0  0  0  0  2  0  0  0  0
   -0.5554   -0.7145    0.0000 P   0  0  0  0  0  0  0  2  0  0  0  0
   -1.3804   -0.7145    0.0000 O   0  0  0  0  0  0  0  2  0  0  0  0
    0.2696   -0.7145    0.0000 O   0  0  0  0  0  0  0  2  0  0  0  0
   -0.1429   -1.4289    0.0000 O   0  0  0  0  0  0  0  2  0  0  0  0
   -1.0717    0.5363    0.0000 C   0  0  0  0  0  0  0  2  0  0  0  0
   -2.0005   -0.0000    0.0000 C   0  0  0  0  0  0  0  2  0  0  0  0
   -2.0005   -0.8250    0.0000 O   0  0  0  0  0  0  0  2  0  0  0  0
   -2.7150    0.4125    0.0000 O   0  0  0  0  0  0  0  2  0  0  0  0
    0.5716   -0.4125    0.0000 C   0  0  0  0  0  0  0  2  0  0  0  0
    1.2860    0.0000    0.0000 C   0  0  0  0  0  0  0  2  0  0  0  0
    2.0005   -0.4125    0.0000 C   0  0  0  0  0  0  0  2  0  0  0  0
    2.0005   -1.2375    0.0000 O   0  0  0  0  0  0  0  2  0  0  0  0
    2.7150   -0.0000    0.0000 O   0  0  0  0  0  0  0  2  0  0  0  0
  1  2  2  0        0
  2  3  1  0        0
  2  4  1  0        0
  4  5  1  0        0
  5  6  2  0        0
  5  7  1  0        0
  5  8  1  0        0
  4  9  1  0        0
  9 10  1  0        0
 10 11  2  0        0
 10 12  1  0        0
  4 13  1  0        0
 13 14  1  0        0
 14 15  1  0        0
 15 16  2  0        0
 15 17  1  0        0
M  END
>  <CAS RN>
37971361

>  <SMILES>
O=C(O)C(P(=O)(O)O)(CC(=O)O)CCC(=O)O

>  <Measured or Estimated Log10(mmol/L)>
-0.3053631

$$$$

CDXL12

 17 16  0  0  0  0  0  0  0  0999 V2000
    1.6715   -0.7248    0.0000 C   0  0  0  0  0  0  0  2  0  0  0  0
    2.3859   -0.3123    0.0000 C   0  0  0  0  0  0  0  2  0  0  0  0
    2.3859    0.5127    0.0000 O   0  0  0  0  0  0  0  2  0  0  0  0
    3.1004   -0.7248    0.0000 O   0  0  0  0  0  0  0  2  0  0  0  0
    0.9570   -0.3123    0.0000 N   0  0  0  0  0  0  0  2  0  0  0  0
    0.2425   -0.7248    0.0000 C   0  0  0  0  0  0  0  2  0  0  0  0
   -0.4719   -0.3123    0.0000 P   0  0  0  0  0  0  0  2  0  0  0  0
   -0.4719    0.5127    0.0000 O   0  0  0  0  0  0  0  2  0  0  0  0
   -0.4719   -1.1373    0.0000 O   0  0  0  0  0  0  0  2  0  0  0  0
   -1.1864   -0.7248    0.0000 O   0  0  0  0  0  0  0  2  0  0  0  0
   -1.9009   -0.3123    0.0000 N   0  0  0  0  0  0  0  2  0  0  0  0
   -2.0299   -1.1271    0.0000 H   0  0  0  0  0  0  0  2  0  0  0  0
   -1.3175    0.2711    0.0000 H   0  0  0  0  0  0  0  2  0  0  0  0
   -2.7157   -0.4413    0.0000 H   0  0  0  0  0  0  0  2  0  0  0  0
   -2.2754    0.4228    0.0000 C   0  0  0  0  0  0  0  2  0  0  0  0
   -1.8629    1.1373    0.0000 C   0  0  0  0  0  0  0  2  0  0  0  0
   -3.1004    0.4228    0.0000 C   0  0  0  0  0  0  0  2  0  0  0  0
  1  2  1  0        0
  2  3  2  0        0
  2  4  1  0        0
  1  5  1  0        0
  5  6  1  0        0
  6  7  1  0        0
  7  8  2  0        0
  7  9  1  0        0
  7 10  1  0        0
 10 11  1  0        0
 11 12  1  0        0
 11 13  1  0        0
 11 14  1  0        0
 11 15  1  0        0
 15 16  1  0        0
 15 17  1  0        0
M  END
>  <CAS RN>
38641940

>  <SMILES>
C(C(=O)O)NCP(=O)(O)ON([H])([H])([H])C(C)C

>  <Measured or Estimated Log10(mmol/L)>
-0.412887288

$$$$

CDXL12

 28 27  0  0  0  0  0  0  0  0999 V2000
    7.5863    1.2434    0.0000 C   0  0  0  0  0  0  0  2  0  0  0  0
    7.2507    0.4897    0.0000 O   0  0  0  0  0  0  0  2  0  0  0  0
    6.4302    0.4035    0.0000 S   0  0  0  0  0  0  0  2  0  0  0  0
    6.5165   -0.4170    0.0000 O   0  0  0  0  0  0  0  2  0  0  0  0
    6.3440    1.2240    0.0000 O   0  0  0  0  0  0  0  2  0  0  0  0
    5.6098    0.3172    0.0000 O   0  0  0  0  0  0  0  2  0  0  0  0
    5.2742   -0.4364    0.0000 N   0  0  0  0  0  0  0  2  0  0  0  0
    6.0947   -0.5227    0.0000 C   0  0  0  0  0  0  0  2  0  0  0  0
    4.6611    0.1156    0.0000 C   0  0  0  0  0  0  0  2  0  0  0  0
    5.4457   -1.2434    0.0000 C   0  0  0  0  0  0  0  2  0  0  0  0
    4.5597   -0.8489    0.0000 C   0  0  0  0  0  0  0  2  0  0  0  0
    3.8453   -0.4364    0.0000 C   0  0  0  0  0  0  0  2  0  0  0  0
    3.1308   -0.8489    0.0000 C   0  0  0  0  0  0  0  2  0  0  0  0
    2.4163   -0.4364    0.0000 C   0  0  0  0  0  0  0  2  0  0  0  0
    1.7018   -0.8489    0.0000 C   0  0  0  0  0  0  0  2  0  0  0  0
    0.9874   -0.4364    0.0000 C   0  0  0  0  0  0  0  2  0  0  0  0
    0.2729   -0.8489    0.0000 C   0  0  0  0  0  0  0  2  0  0  0  0
   -0.4416   -0.4364    0.0000 C   0  0  0  0  0  0  0  2  0  0  0  0
   -1.1560   -0.8489    0.0000 C   0  0  0  0  0  0  0  2  0  0  0  0
   -1.8705   -0.4364    0.0000 C   0  0  0  0  0  0  0  2  0  0  0  0
   -2.5850   -0.8489    0.0000 C   0  0  0  0  0  0  0  2  0  0  0  0
   -3.2995   -0.4364    0.0000 C   0  0  0  0  0  0  0  2  0  0  0  0
   -4.0139   -0.8489    0.0000 C   0  0  0  0  0  0  0  2  0  0  0  0
   -4.7284   -0.4364    0.0000 C   0  0  0  0  0  0  0  2  0  0  0  0
   -5.4429   -0.8489    0.0000 C   0  0  0  0  0  0  0  2  0  0  0  0
   -6.1573   -0.4364    0.0000 C   0  0  0  0  0  0  0  2  0  0  0  0
   -6.8718   -0.8489    0.0000 C   0  0  0  0  0  0  0  2  0  0  0  0
   -7.5863   -0.4364    0.0000 C   0  0  0  0  0  0  0  2  0  0  0  0
  1  2  1  0        0
  2  3  1  0        0
  3  4  2  0        0
  3  5  2  0        0
  3  6  1  0        0
  6  7  1  0        0
  7  8  1  0        0
  7  9  1  0        0
  7 10  1  0        0
  7 11  1  0        0
 11 12  1  0        0
 12 13  1  0        0
 13 14  1  0        0
 14 15  1  0        0
 15 16  1  0        0
 16 17  1  0        0
 17 18  1  0        0
 18 19  1  0        0
 19 20  1  0        0
 20 21  1  0        0
 21 22  1  0        0
 22 23  1  0        0
 23 24  1  0        0
 24 25  1  0        0
 25 26  1  0        0
 26 27  1  0        0
 27 28  1  0        0
M  END
>  <CAS RN>
39336759

>  <SMILES>
COS(=O)(=O)ON(C)(C)(C)CCCCCCCCCCCCCCCCCC

>  <Measured or Estimated Log10(mmol/L)>
-2.775197585

$$$$

CDXL12

 40 39  0  0  0  0  0  0  0  0999 V2000
   -7.8592   -4.3312    0.0000 C   0  0  0  0  0  0  0  2  0  0  0  0
   -7.8592   -3.5062    0.0000 C   0  0  0  0  0  0  0  2  0  0  0  0
   -8.5737   -3.0937    0.0000 C   0  0  0  0  0  0  0  2  0  0  0  0
   -7.1447   -3.0937    0.0000 C   0  0  0  0  0  0  0  2  0  0  0  0
   -6.4302   -3.5062    0.0000 C   0  0  0  0  0  0  0  2  0  0  0  0
   -5.7158   -3.0937    0.0000 C   0  0  0  0  0  0  0  2  0  0  0  0
   -5.0013   -3.5062    0.0000 C   0  0  0  0  0  0  0  2  0  0  0  0
   -4.2868   -3.0937    0.0000 C   0  0  0  0  0  0  0  2  0  0  0  0
   -3.5724   -3.5062    0.0000 C   0  0  0  0  0  0  0  2  0  0  0  0
   -2.8579   -3.0937    0.0000 C   0  0  0  0  0  0  0  2  0  0  0  0
   -2.1434   -3.5062    0.0000 C   0  0  0  0  0  0  0  2  0  0  0  0
   -1.4289   -3.0937    0.0000 C   0  0  0  0  0  0  0  2  0  0  0  0
   -0.7145   -3.5062    0.0000 C   0  0  0  0  0  0  0  2  0  0  0  0
    0.0000   -3.0937    0.0000 N   0  0  0  0  0  0  0  2  0  0  0  0
    0.7145   -3.5062    0.0000 C   0  0  0  0  0  0  0  2  0  0  0  0
    1.4289   -3.0937    0.0000 C   0  0  0  0  0  0  0  2  0  0  0  0
    2.1434   -3.5062    0.0000 C   0  0  0  0  0  0  0  2  0  0  0  0
    2.8579   -3.0937    0.0000 C   0  0  0  0  0  0  0  2  0  0  0  0
    3.5724   -3.5062    0.0000 C   0  0  0  0  0  0  0  2  0  0  0  0
    4.2868   -3.0937    0.0000 C   0  0  0  0  0  0  0  2  0  0  0  0
    5.0013   -3.5062    0.0000 C   0  0  0  0  0  0  0  2  0  0  0  0
    5.7158   -3.0937    0.0000 C   0  0  0  0  0  0  0  2  0  0  0  0
    6.4302   -3.5062    0.0000 C   0  0  0  0  0  0  0  2  0  0  0  0
    7.1447   -3.0937    0.0000 C   0  0  0  0  0  0  0  2  0  0  0  0
    7.8592   -3.5062    0.0000 C   0  0  0  0  0  0  0  2  0  0  0  0
    8.5737   -3.0937    0.0000 C   0  0  0  0  0  0  0  2  0  0  0  0
    7.8592   -4.3312    0.0000 C   0  0  0  0  0  0  0  2  0  0  0  0
    0.0000   -2.2687    0.0000 C   0  0  0  0  0  0  0  2  0  0  0  0
   -0.7145   -1.8562    0.0000 C   0  0  0  0  0  0  0  2  0  0  0  0
   -0.7145   -1.0312    0.0000 C   0  0  0  0  0  0  0  2  0  0  0  0
   -1.4289   -0.6187    0.0000 C   0  0  0  0  0  0  0  2  0  0  0  0
   -1.4289    0.2063    0.0000 C   0  0  0  0  0  0  0  2  0  0  0  0
   -2.1434    0.6188    0.0000 C   0  0  0  0  0  0  0  2  0  0  0  0
   -2.1434    1.4438    0.0000 C   0  0  0  0  0  0  0  2  0  0  0  0
   -2.8579    1.8563    0.0000 C   0  0  0  0  0  0  0  2  0  0  0  0
   -2.8579    2.6813    0.0000 C   0  0  0  0  0  0  0  2  0  0  0  0
   -3.5724    3.0938    0.0000 C   0  0  0  0  0  0  0  2  0  0  0  0
   -3.5724    3.9187    0.0000 C   0  0  0  0  0  0  0  2  0  0  0  0
   -2.8579    4.3312    0.0000 C   0  0  0  0  0  0  0  2  0  0  0  0
   -4.2868    4.3312    0.0000 C   0  0  0  0  0  0  0  2  0  0  0  0
  1  2  1  0        0
  2  3  1  0        0
  2  4  1  0        0
  4  5  1  0        0
  5  6  1  0        0
  6  7  1  0        0
  7  8  1  0        0
  8  9  1  0        0
  9 10  1  0        0
 10 11  1  0        0
 11 12  1  0        0
 12 13  1  0        0
 13 14  1  0        0
 14 15  1  0        0
 15 16  1  0        0
 16 17  1  0        0
 17 18  1  0        0
 18 19  1  0        0
 19 20  1  0        0
 20 21  1  0        0
 21 22  1  0        0
 22 23  1  0        0
 23 24  1  0        0
 24 25  1  0        0
 25 26  1  0        0
 25 27  1  0        0
 14 28  1  0        0
 28 29  1  0        0
 29 30  1  0        0
 30 31  1  0        0
 31 32  1  0        0
 32 33  1  0        0
 33 34  1  0        0
 34 35  1  0        0
 35 36  1  0        0
 36 37  1  0        0
 37 38  1  0        0
 38 39  1  0        0
 38 40  1  0        0
M  END
>  <CAS RN>
39433017

>  <SMILES>
CC(C)CCCCCCCCCCN(CCCCCCCCCCC(C)C)CCCCCCCCCCC(C)C

>  <Measured or Estimated Log10(mmol/L)>
-2.714740629

$$$$

CDXL12

 21 21  0  0  0  0  0  0  0  0999 V2000
    1.4289    0.4678    0.0000 C   0  0  0  0  0  0  0  2  0  0  0  0
    2.1434    0.8803    0.0000 C   0  0  0  0  0  0  0  2  0  0  0  0
    2.8579    0.4678    0.0000 C   0  0  0  0  0  0  0  2  0  0  0  0
    3.5724    0.8803    0.0000 S   0  0  0  0  0  0  0  2  0  0  0  0
    3.9849    0.1658    0.0000 O   0  0  0  0  0  0  0  2  0  0  0  0
    3.1599    1.5947    0.0000 O   0  0  0  0  0  0  0  2  0  0  0  0
    4.2868    1.2928    0.0000 O   0  0  0  0  0  0  0  2  0  0  0  0
    5.0013    0.8803    0.0000 Na  0  0  0  0  0  0  0  2  0  0  0  0
    2.8579   -0.3572    0.0000 C   0  0  0  0  0  0  0  2  0  0  0  0
    2.1434   -0.7697    0.0000 C   0  0  0  0  0  0  0  2  0  0  0  0
    1.4289   -0.3572    0.0000 C   0  0  0  0  0  0  0  2  0  0  0  0
    0.7145   -0.7697    0.0000 C   0  0  0  0  0  0  0  2  0  0  0  0
    0.7145   -1.5947    0.0000 C   0  0  0  0  0  0  0  2  0  0  0  0
    0.0000   -0.3572    0.0000 C   0  0  0  0  0  0  0  2  0  0  0  0
   -0.7145   -0.7697    0.0000 C   0  0  0  0  0  0  0  2  0  0  0  0
   -1.4289   -0.3572    0.0000 C   0  0  0  0  0  0  0  2  0  0  0  0
   -2.1434   -0.7697    0.0000 C   0  0  0  0  0  0  0  2  0  0  0  0
   -2.8579   -0.3572    0.0000 C   0  0  0  0  0  0  0  2  0  0  0  0
   -3.5724   -0.7697    0.0000 C   0  0  0  0  0  0  0  2  0  0  0  0
   -4.2868   -0.3572    0.0000 C   0  0  0  0  0  0  0  2  0  0  0  0
   -5.0013   -0.7697    0.0000 C   0  0  0  0  0  0  0  2  0  0  0  0
  1  2  4  0        0
  2  3  4  0        0
  3  4  1  0        0
  4  5  2  0        0
  4  6  2  0        0
  4  7  1  0        0
  7  8  1  0        0
  3  9  4  0        0
  9 10  4  0        0
 10 11  4  0        0
  1 11  4  0        0
 11 12  1  0        0
 12 13  1  0        0
 12 14  1  0        0
 14 15  1  0        0
 15 16  1  0        0
 16 17  1  0        0
 17 18  1  0        0
 18 19  1  0        0
 19 20  1  0        0
 20 21  1  0        0
M  END
>  <CAS RN>
42615292

>  <SMILES>
c1cc(S(=O)(=O)O[Na])ccc1C(C)CCCCCCCC

>  <Measured or Estimated Log10(mmol/L)>
-2.079086104

$$$$

CDXL12

 30 31  0  0  0  0  0  0  0  0999 V2000
   -4.6441    0.6187    0.0000 C   0  0  0  0  0  0  0  2  0  0  0  0
   -4.6441   -0.2062    0.0000 C   0  0  0  0  0  0  0  2  0  0  0  0
   -3.9296   -0.6188    0.0000 C   0  0  0  0  0  0  0  2  0  0  0  0
   -3.2151   -0.2062    0.0000 C   0  0  0  0  0  0  0  2  0  0  0  0
   -3.2151    0.6188    0.0000 C   0  0  0  0  0  0  0  2  0  0  0  0
   -3.9296    1.0312    0.0000 C   0  0  0  0  0  0  0  2  0  0  0  0
   -2.5006   -0.6188    0.0000 N   0  0  0  0  0  0  0  2  0  0  0  0
   -1.7862   -0.2062    0.0000 C   0  0  0  0  0  0  0  2  0  0  0  0
   -1.7862    0.6188    0.0000 O   0  0  0  0  0  0  0  2  0  0  0  0
   -1.0717   -0.6188    0.0000 N   0  0  0  0  0  0  0  2  0  0  0  0
   -0.3572   -0.2062    0.0000 C   0  0  0  0  0  0  0  2  0  0  0  0
    0.3572   -0.6188    0.0000 C   0  0  0  0  0  0  0  2  0  0  0  0
    1.0717   -0.2062    0.0000 C   0  0  0  0  0  0  0  2  0  0  0  0
    1.0717    0.6188    0.0000 C   0  0  0  0  0  0  0  2  0  0  0  0
    0.3572    1.0313    0.0000 C   0  0  0  0  0  0  0  2  0  0  0  0
   -0.3572    0.6188    0.0000 C   0  0  0  0  0  0  0  2  0  0  0  0
    1.7862    1.0313    0.0000 C   0  0  0  0  0  0  0  2  0  0  0  0
    1.7862    1.8563    0.0000 O   0  0  0  0  0  0  0  2  0  0  0  0
    2.5006    0.6188    0.0000 N   0  0  0  0  0  0  0  2  0  0  0  0
    3.2151    1.0313    0.0000 C   0  0  0  0  0  0  0  2  0  0  0  0
    3.9296    0.6188    0.0000 C   0  0  0  0  0  0  0  2  0  0  0  0
    4.6441    1.0313    0.0000 C   0  0  0  0  0  0  0  2  0  0  0  0
    5.3585    0.6188    0.0000 C   0  0  0  0  0  0  0  2  0  0  0  0
    5.3585   -0.2062    0.0000 O   0  0  0  0  0  0  0  2  0  0  0  0
    6.0730    1.0313    0.0000 O   0  0  0  0  0  0  0  2  0  0  0  0
   -3.9296   -1.4437    0.0000 N   0  0  0  0  0  0  0  2  0  0  0  0
   -4.6441   -1.8562    0.0000 O   0  0  0  0  0  0  0  2  0  0  0  0
   -3.2151   -1.8563    0.0000 O   0  0  0  0  0  0  0  2  0  0  0  0
   -5.3585    1.0312    0.0000 O   0  0  0  0  0  0  0  2  0  0  0  0
   -6.0730    0.6187    0.0000 C   0  0  0  0  0  0  0  2  0  0  0  0
  1  2  4  0        0
  2  3  4  0        0
  3  4  4  0        0
  4  5  4  0        0
  5  6  4  0        0
  1  6  4  0        0
  4  7  1  0        0
  7  8  1  0        0
  8  9  2  0        0
  8 10  1  0        0
 10 11  1  0        0
 11 12  4  0        0
 12 13  4  0        0
 13 14  4  0        0
 14 15  4  0        0
 15 16  4  0        0
 11 16  4  0        0
 14 17  1  0        0
 17 18  2  0        0
 17 19  1  0        0
 19 20  1  0        0
 20 21  1  0        0
 21 22  1  0        0
 22 23  1  0        0
 23 24  2  0        0
 23 25  1  0        0
  3 26  1  0        0
 26 27  2  0        0
 26 28  2  0        0
  1 29  1  0        0
 29 30  1  0        0
M  END
>  <CAS RN>
49625210

>  <SMILES>
c1(cc(c(cc1)NC(=O)Nc1ccc(cc1)C(=O)NCCCC(=O)O)N(=O)=O)OC

>  <Measured or Estimated Log10(mmol/L)>
-1.297425062

$$$$

CDXL12

 22 22  0  0  0  0  0  0  0  0999 V2000
   -1.4289    1.6500    0.0000 Br  0  0  0  0  0  0  0  2  0  0  0  0
   -1.4289    0.8250    0.0000 C   0  0  0  0  0  0  0  2  0  0  0  0
   -2.1434    0.4125    0.0000 C   0  0  0  0  0  0  0  2  0  0  0  0
   -2.8579    0.8250    0.0000 Br  0  0  0  0  0  0  0  2  0  0  0  0
   -2.1434   -0.4125    0.0000 C   0  0  0  0  0  0  0  2  0  0  0  0
   -2.8579   -0.8250    0.0000 Br  0  0  0  0  0  0  0  2  0  0  0  0
   -1.4289   -0.8250    0.0000 C   0  0  0  0  0  0  0  2  0  0  0  0
   -1.4289   -1.6500    0.0000 Br  0  0  0  0  0  0  0  2  0  0  0  0
   -0.7145   -0.4125    0.0000 C   0  0  0  0  0  0  0  2  0  0  0  0
   -0.0000   -0.8250    0.0000 C   0  0  0  0  0  0  0  2  0  0  0  0
   -0.0000   -1.6500    0.0000 O   0  0  0  0  0  0  0  2  0  0  0  0
    0.7145   -0.4125    0.0000 O   0  0  0  0  0  0  0  2  0  0  0  0
    1.4289   -0.8250    0.0000 C   0  0  0  0  0  0  0  2  0  0  0  0
    2.1434   -0.4125    0.0000 C   0  0  0  0  0  0  0  2  0  0  0  0
    2.8579   -0.8250    0.0000 C   0  0  0  0  0  0  0  2  0  0  0  0
   -0.7145    0.4125    0.0000 C   0  0  0  0  0  0  0  2  0  0  0  0
   -0.0000    0.8250    0.0000 C   0  0  0  0  0  0  0  2  0  0  0  0
   -0.0000    1.6500    0.0000 O   0  0  0  0  0  0  0  2  0  0  0  0
    0.7145    0.4125    0.0000 O   0  0  0  0  0  0  0  2  0  0  0  0
    1.4289    0.8250    0.0000 C   0  0  0  0  0  0  0  2  0  0  0  0
    2.1434    0.4125    0.0000 C   0  0  0  0  0  0  0  2  0  0  0  0
    2.8579    0.8250    0.0000 C   0  0  0  0  0  0  0  2  0  0  0  0
  1  2  1  0        0
  2  3  4  0        0
  3  4  1  0        0
  3  5  4  0        0
  5  6  1  0        0
  5  7  4  0        0
  7  8  1  0        0
  7  9  4  0        0
  9 10  1  0        0
 10 11  2  0        0
 10 12  1  0        0
 12 13  1  0        0
 13 14  1  0        0
 14 15  2  0        0
  9 16  4  0        0
  2 16  4  0        0
 16 17  1  0        0
 17 18  2  0        0
 17 19  1  0        0
 19 20  1  0        0
 20 21  1  0        0
 21 22  2  0        0
M  END
>  <CAS RN>
49693096

>  <SMILES>
Brc1c(Br)c(Br)c(Br)c(C(=O)OCC=C)c1C(=O)OCC=C

>  <Measured or Estimated Log10(mmol/L)>
-1.708240052

$$$$

CDXL12

 19 19  0  0  0  0  0  0  0  0999 V2000
   -2.5006   -0.6188    0.0000 C   0  0  0  0  0  0  0  2  0  0  0  0
   -1.7862   -0.2062    0.0000 C   0  0  0  0  0  0  0  2  0  0  0  0
   -1.0717   -0.6188    0.0000 C   0  0  0  0  0  0  0  2  0  0  0  0
   -1.0717   -1.4438    0.0000 C   0  0  0  0  0  0  0  2  0  0  0  0
   -0.3572   -1.8563    0.0000 C   0  0  0  0  0  0  0  2  0  0  0  0
    0.3572   -1.4437    0.0000 C   0  0  0  0  0  0  0  2  0  0  0  0
    0.3572   -0.6187    0.0000 C   0  0  0  0  0  0  0  2  0  0  0  0
    1.0717   -0.2062    0.0000 C   0  0  0  0  0  0  0  2  0  0  0  0
   -0.3572   -0.2062    0.0000 C   0  0  0  0  0  0  0  2  0  0  0  0
   -0.3572    0.6188    0.0000 N   0  0  0  0  0  0  0  2  0  0  0  0
    0.3572    1.0313    0.0000 C   0  0  0  0  0  0  0  2  0  0  0  0
    0.3572    1.8563    0.0000 C   0  0  0  0  0  0  0  2  0  0  0  0
    1.0717    0.6188    0.0000 C   0  0  0  0  0  0  0  2  0  0  0  0
    1.7862    1.0312    0.0000 O   0  0  0  0  0  0  0  2  0  0  0  0
    2.5006    0.6188    0.0000 C   0  0  0  0  0  0  0  2  0  0  0  0
   -1.0717    1.0313    0.0000 C   0  0  0  0  0  0  0  2  0  0  0  0
   -1.0717    1.8563    0.0000 O   0  0  0  0  0  0  0  2  0  0  0  0
   -1.7862    0.6188    0.0000 C   0  0  0  0  0  0  0  2  0  0  0  0
   -2.5006    1.0312    0.0000 Cl  0  0  0  0  0  0  0  2  0  0  0  0
  1  2  1  0        0
  2  3  1  0        0
  3  4  4  0        0
  4  5  4  0        0
  5  6  4  0        0
  6  7  4  0        0
  7  8  1  0        0
  7  9  4  0        0
  3  9  4  0        0
  9 10  1  0        0
 10 11  1  0        0
 11 12  1  0        0
 11 13  1  0        0
 13 14  1  0        0
 14 15  1  0        0
 10 16  1  0        0
 16 17  2  0        0
 16 18  1  0        0
 18 19  1  0        0
M  END
>  <CAS RN>
51218452

>  <SMILES>
CCc1cccc(C)c1N(C(C)COC)C(=O)CCl

>  <Measured or Estimated Log10(mmol/L)>
-0.864888501

$$$$

CDXL12

  9  9  0  0  0  0  0  0  0  0999 V2000
    1.4289    0.8250    0.0000 C   0  0  0  0  0  0  0  2  0  0  0  0
    0.7145    0.4125    0.0000 C   0  0  0  0  0  0  0  2  0  0  0  0
    0.7145   -0.4125    0.0000 C   0  0  0  0  0  0  0  2  0  0  0  0
    1.4289   -0.8250    0.0000 F   0  0  0  0  0  0  0  2  0  0  0  0
    0.0000   -0.8250    0.0000 C   0  0  0  0  0  0  0  2  0  0  0  0
   -0.7145   -0.4125    0.0000 C   0  0  0  0  0  0  0  2  0  0  0  0
   -1.4289   -0.8250    0.0000 Br  0  0  0  0  0  0  0  2  0  0  0  0
   -0.7145    0.4125    0.0000 C   0  0  0  0  0  0  0  2  0  0  0  0
    0.0000    0.8250    0.0000 C   0  0  0  0  0  0  0  2  0  0  0  0
  1  2  1  0        0
  2  3  4  0        0
  3  4  1  0        0
  3  5  4  0        0
  5  6  4  0        0
  6  7  1  0        0
  6  8  4  0        0
  8  9  4  0        0
  2  9  4  0        0
M  END
>  <CAS RN>
51436998

>  <SMILES>
Cc1c(F)cc(Br)cc1

>  <Measured or Estimated Log10(mmol/L)>
-0.489783893

$$$$

CDXL12

 30 32  0  0  0  0  0  0  0  0999 V2000
   -1.7862    0.2062    0.0000 C   0  0  0  0  0  0  0  2  0  0  0  0
   -1.7862   -0.6188    0.0000 C   0  0  0  0  0  0  0  2  0  0  0  0
   -2.5006   -1.0313    0.0000 C   0  0  0  0  0  0  0  2  0  0  0  0
   -1.0717   -1.0313    0.0000 C   0  0  0  0  0  0  0  2  0  0  0  0
   -0.3572   -0.6188    0.0000 C   0  0  0  0  0  0  0  2  0  0  0  0
   -0.3572    0.2062    0.0000 O   0  0  0  0  0  0  0  2  0  0  0  0
    0.3572   -1.0313    0.0000 O   0  0  0  0  0  0  0  2  0  0  0  0
    1.0717   -0.6188    0.0000 C   0  0  0  0  0  0  0  2  0  0  0  0
    1.7862   -1.0313    0.0000 C   0  0  0  0  0  0  0  2  0  0  0  0
    2.5006   -1.4438    0.0000 N   0  0  0  0  0  0  0  2  0  0  0  0
    1.0717    0.2062    0.0000 C   0  0  0  0  0  0  0  2  0  0  0  0
    1.7862    0.6187    0.0000 C   0  0  0  0  0  0  0  2  0  0  0  0
    1.7862    1.4437    0.0000 C   0  0  0  0  0  0  0  2  0  0  0  0
    1.0717    1.8563    0.0000 C   0  0  0  0  0  0  0  2  0  0  0  0
    0.3572    1.4438    0.0000 C   0  0  0  0  0  0  0  2  0  0  0  0
   -0.3572    1.8563    0.0000 O   0  0  0  0  0  0  0  2  0  0  0  0
   -0.3572    2.6812    0.0000 C   0  0  0  0  0  0  0  2  0  0  0  0
   -1.0717    3.0937    0.0000 C   0  0  0  0  0  0  0  2  0  0  0  0
   -1.0717    3.9188    0.0000 C   0  0  0  0  0  0  0  2  0  0  0  0
   -0.3572    4.3312    0.0000 C   0  0  0  0  0  0  0  2  0  0  0  0
    0.3572    3.9188    0.0000 C   0  0  0  0  0  0  0  2  0  0  0  0
    0.3572    3.0938    0.0000 C   0  0  0  0  0  0  0  2  0  0  0  0
    0.3572    0.6188    0.0000 C   0  0  0  0  0  0  0  2  0  0  0  0
   -1.0717   -1.8563    0.0000 C   0  0  0  0  0  0  0  2  0  0  0  0
   -1.7862   -2.2687    0.0000 C   0  0  0  0  0  0  0  2  0  0  0  0
   -1.7862   -3.0938    0.0000 C   0  0  0  0  0  0  0  2  0  0  0  0
   -1.0717   -3.5063    0.0000 C   0  0  0  0  0  0  0  2  0  0  0  0
   -1.0717   -4.3312    0.0000 Cl  0  0  0  0  0  0  0  2  0  0  0  0
   -0.3572   -3.0938    0.0000 C   0  0  0  0  0  0  0  2  0  0  0  0
   -0.3572   -2.2687    0.0000 C   0  0  0  0  0  0  0  2  0  0  0  0
  1  2  1  0        0
  2  3  1  0        0
  2  4  1  0        0
  4  5  1  0        0
  5  6  2  0        0
  5  7  1  0        0
  7  8  1  0        0
  8  9  1  0        0
  9 10  3  0        0
  8 11  1  0        0
 11 12  4  0        0
 12 13  4  0        0
 13 14  4  0        0
 14 15  4  0        0
 15 16  1  0        0
 16 17  1  0        0
 17 18  4  0        0
 18 19  4  0        0
 19 20  4  0        0
 20 21  4  0        0
 21 22  4  0        0
 17 22  4  0        0
 15 23  4  0        0
 11 23  4  0        0
  4 24  1  0        0
 24 25  4  0        0
 25 26  4  0        0
 26 27  4  0        0
 27 28  1  0        0
 27 29  4  0        0
 29 30  4  0        0
 24 30  4  0        0
M  END
>  <CAS RN>
51630581

>  <SMILES>
CC(C)C(C(=O)OC(C#N)c1cccc(Oc2ccccc2)c1)c1ccc(Cl)cc1

>  <Measured or Estimated Log10(mmol/L)>
-4.985942128

$$$$

CDXL12

 13 12  0  0  0  0  0  0  0  0999 V2000
    0.0000    0.2062    0.0000 Mn  0  0  0  0  0  0  0  2  0  0  0  0
   -0.7145   -0.2062    0.0000 O   0  0  0  0  0  0  0  2  0  0  0  0
   -1.4289    0.2062    0.0000 C   0  0  0  0  0  0  0  2  0  0  0  0
   -1.4289    1.0312    0.0000 O   0  0  0  0  0  0  0  2  0  0  0  0
   -2.1434   -0.2062    0.0000 C   0  0  0  0  0  0  0  2  0  0  0  0
   -2.1434   -1.0312    0.0000 O   0  0  0  0  0  0  0  2  0  0  0  0
   -2.8579    0.2063    0.0000 C   0  0  0  0  0  0  0  2  0  0  0  0
    0.7145   -0.2062    0.0000 O   0  0  0  0  0  0  0  2  0  0  0  0
    1.4289    0.2062    0.0000 C   0  0  0  0  0  0  0  2  0  0  0  0
    1.4289    1.0312    0.0000 O   0  0  0  0  0  0  0  2  0  0  0  0
    2.1434   -0.2062    0.0000 C   0  0  0  0  0  0  0  2  0  0  0  0
    2.1434   -1.0312    0.0000 O   0  0  0  0  0  0  0  2  0  0  0  0
    2.8579    0.2062    0.0000 C   0  0  0  0  0  0  0  2  0  0  0  0
  1  2  1  0        0
  2  3  1  0        0
  3  4  2  0        0
  3  5  1  0        0
  5  6  1  0        0
  5  7  1  0        0
  1  8  1  0        0
  8  9  1  0        0
  9 10  2  0        0
  9 11  1  0        0
 11 12  1  0        0
 11 13  1  0        0
M  END
>  <CAS RN>
51877533

>  <SMILES>
[Mn](OC(=O)C(O)C)OC(=O)C(O)C

>  <Measured or Estimated Log10(mmol/L)>
-0.029044782

$$$$

CDXL12

 28 30  0  0  0  0  0  0  0  0999 V2000
   -4.3421   -0.3168    0.0000 Cl  0  0  0  0  0  0  0  2  0  0  0  0
   -3.6276   -0.7293    0.0000 C   0  0  0  0  0  0  0  2  0  0  0  0
   -3.6276   -1.5543    0.0000 Cl  0  0  0  0  0  0  0  2  0  0  0  0
   -2.9131   -0.3168    0.0000 C   0  0  0  0  0  0  0  2  0  0  0  0
   -2.1987   -0.7293    0.0000 C   0  0  0  0  0  0  0  2  0  0  0  0
   -1.7862   -1.4437    0.0000 C   0  0  0  0  0  0  0  2  0  0  0  0
   -1.3737   -2.1582    0.0000 C   0  0  0  0  0  0  0  2  0  0  0  0
   -2.1987   -2.1582    0.0000 C   0  0  0  0  0  0  0  2  0  0  0  0
   -1.3737   -0.7293    0.0000 C   0  0  0  0  0  0  0  2  0  0  0  0
   -0.6592   -0.3168    0.0000 C   0  0  0  0  0  0  0  2  0  0  0  0
   -0.6592    0.5082    0.0000 O   0  0  0  0  0  0  0  2  0  0  0  0
    0.0553   -0.7293    0.0000 O   0  0  0  0  0  0  0  2  0  0  0  0
    0.7697   -0.3168    0.0000 C   0  0  0  0  0  0  0  2  0  0  0  0
    1.4842   -0.7293    0.0000 C   0  0  0  0  0  0  0  2  0  0  0  0
    2.1987   -1.1418    0.0000 N   0  0  0  0  0  0  0  2  0  0  0  0
    0.7697    0.5082    0.0000 C   0  0  0  0  0  0  0  2  0  0  0  0
    0.0553    0.9207    0.0000 C   0  0  0  0  0  0  0  2  0  0  0  0
    0.0553    1.7457    0.0000 C   0  0  0  0  0  0  0  2  0  0  0  0
    0.7697    2.1582    0.0000 C   0  0  0  0  0  0  0  2  0  0  0  0
    1.4842    1.7457    0.0000 C   0  0  0  0  0  0  0  2  0  0  0  0
    2.1987    2.1582    0.0000 O   0  0  0  0  0  0  0  2  0  0  0  0
    2.9131    1.7457    0.0000 C   0  0  0  0  0  0  0  2  0  0  0  0
    3.6276    2.1582    0.0000 C   0  0  0  0  0  0  0  2  0  0  0  0
    4.3421    1.7457    0.0000 C   0  0  0  0  0  0  0  2  0  0  0  0
    4.3421    0.9207    0.0000 C   0  0  0  0  0  0  0  2  0  0  0  0
    3.6276    0.5082    0.0000 C   0  0  0  0  0  0  0  2  0  0  0  0
    2.9131    0.9207    0.0000 C   0  0  0  0  0  0  0  2  0  0  0  0
    1.4842    0.9207    0.0000 C   0  0  0  0  0  0  0  2  0  0  0  0
  1  2  1  0        0
  2  3  1  0        0
  2  4  2  0        0
  4  5  1  0        0
  5  6  1  0        0
  6  7  1  0        0
  6  8  1  0        0
  6  9  1  0        0
  5  9  1  0        0
  9 10  1  6        0
 10 11  2  0        0
 10 12  1  0        0
 12 13  1  0        0
 13 14  1  0        0
 14 15  3  0        0
 13 16  1  0        0
 16 17  4  0        0
 17 18  4  0        0
 18 19  4  0        0
 19 20  4  0        0
 20 21  1  0        0
 21 22  1  0        0
 22 23  4  0        0
 23 24  4  0        0
 24 25  4  0        0
 25 26  4  0        0
 26 27  4  0        0
 22 27  4  0        0
 20 28  4  0        0
 16 28  4  0        0
M  END
>  <CAS RN>
52315078

>  <SMILES>
ClC(Cl)=CC1C(C)(C)[C@H]1C(=O)OC(C#N)c1cccc(Oc2ccccc2)c1

>  <Measured or Estimated Log10(mmol/L)>
-6.036200688

$$$$

CDXL12

 26 28  0  0  0  0  0  0  0  0999 V2000
   -2.0881    1.3332    0.0000 C   0  0  0  0  0  0  0  2  0  0  0  0
   -2.5006    0.6188    0.0000 C   0  0  0  0  0  0  0  2  0  0  0  0
   -2.9131    1.3332    0.0000 C   0  0  0  0  0  0  0  2  0  0  0  0
   -2.9131   -0.0957    0.0000 C   0  0  0  0  0  0  0  2  0  0  0  0
   -3.6276   -0.5082    0.0000 C   0  0  0  0  0  0  0  2  0  0  0  0
   -4.3421   -0.0957    0.0000 C   0  0  0  0  0  0  0  2  0  0  0  0
   -4.3421    0.7293    0.0000 Cl  0  0  0  0  0  0  0  2  0  0  0  0
   -5.0566   -0.5082    0.0000 Cl  0  0  0  0  0  0  0  2  0  0  0  0
   -2.0881   -0.0957    0.0000 C   0  0  0  0  0  0  0  2  0  0  0  0
   -1.3737   -0.5082    0.0000 C   0  0  0  0  0  0  0  2  0  0  0  0
   -1.3737   -1.3332    0.0000 O   0  0  0  0  0  0  0  2  0  0  0  0
   -0.6592   -0.0957    0.0000 O   0  0  0  0  0  0  0  2  0  0  0  0
    0.0553   -0.5082    0.0000 C   0  0  0  0  0  0  0  2  0  0  0  0
    0.7697   -0.0957    0.0000 C   0  0  0  0  0  0  0  2  0  0  0  0
    0.7697    0.7293    0.0000 C   0  0  0  0  0  0  0  2  0  0  0  0
    1.4842    1.1418    0.0000 C   0  0  0  0  0  0  0  2  0  0  0  0
    2.1987    0.7293    0.0000 C   0  0  0  0  0  0  0  2  0  0  0  0
    2.1987   -0.0957    0.0000 C   0  0  0  0  0  0  0  2  0  0  0  0
    2.9131   -0.5082    0.0000 O   0  0  0  0  0  0  0  2  0  0  0  0
    3.6276   -0.0957    0.0000 C   0  0  0  0  0  0  0  2  0  0  0  0
    4.3421   -0.5082    0.0000 C   0  0  0  0  0  0  0  2  0  0  0  0
    5.0566   -0.0957    0.0000 C   0  0  0  0  0  0  0  2  0  0  0  0
    5.0566    0.7293    0.0000 C   0  0  0  0  0  0  0  2  0  0  0  0
    4.3421    1.1418    0.0000 C   0  0  0  0  0  0  0  2  0  0  0  0
    3.6276    0.7293    0.0000 C   0  0  0  0  0  0  0  2  0  0  0  0
    1.4842   -0.5082    0.0000 C   0  0  0  0  0  0  0  2  0  0  0  0
  1  2  1  0        0
  2  3  1  0        0
  2  4  1  0        0
  4  5  1  0        0
  5  6  2  0        0
  6  7  1  0        0
  6  8  1  0        0
  4  9  1  0        0
  2  9  1  0        0
  9 10  1  0        0
 10 11  2  0        0
 10 12  1  0        0
 12 13  1  0        0
 13 14  1  0        0
 14 15  4  0        0
 15 16  4  0        0
 16 17  4  0        0
 17 18  4  0        0
 18 19  1  0        0
 19 20  1  0        0
 20 21  4  0        0
 21 22  4  0        0
 22 23  4  0        0
 23 24  4  0        0
 24 25  4  0        0
 20 25  4  0        0
 18 26  4  0        0
 14 26  4  0        0
M  END
>  <CAS RN>
52645531

>  <SMILES>
CC1(C)C(/C=C(\Cl)/Cl)C1C(=O)OCc1cccc(Oc2ccccc2)c1

>  <Measured or Estimated Log10(mmol/L)>
-4.957443153

$$$$

CDXL12

 30 32  0  0  0  0  0  0  0  0999 V2000
   -2.8579    0.0000    0.0000 C   0  0  0  0  0  0  0  2  0  0  0  0
   -2.1434   -0.4125    0.0000 C   0  0  0  0  0  0  0  2  0  0  0  0
   -2.1434    0.4125    0.0000 C   0  0  0  0  0  0  0  2  0  0  0  0
   -2.1434   -1.2375    0.0000 C   0  0  0  0  0  0  0  2  0  0  0  0
   -2.1434   -2.0625    0.0000 H   0  0  0  0  0  0  0  2  0  0  0  0
   -2.8579   -1.6500    0.0000 C   0  0  0  0  0  0  0  2  0  0  0  0
   -3.5724   -1.2375    0.0000 C   0  0  0  0  0  0  0  2  0  0  0  0
   -3.5724   -0.4125    0.0000 Br  0  0  0  0  0  0  0  2  0  0  0  0
   -4.2868   -1.6500    0.0000 Br  0  0  0  0  0  0  0  2  0  0  0  0
   -1.4289   -0.8250    0.0000 C   0  0  0  0  0  0  0  2  0  0  0  0
   -0.7145   -1.2375    0.0000 H   0  0  0  0  0  0  0  2  0  0  0  0
   -0.7145   -0.4125    0.0000 C   0  0  0  0  0  0  0  2  0  0  0  0
   -0.7145    0.4125    0.0000 O   0  0  0  0  0  0  0  2  0  0  0  0
    0.0000   -0.8250    0.0000 O   0  0  0  0  0  0  0  2  0  0  0  0
    0.7145   -0.4125    0.0000 C   0  0  0  0  0  0  0  2  0  0  0  0
    1.4289   -0.8250    0.0000 C   0  0  0  0  0  0  0  2  0  0  0  0
    2.1434   -1.2375    0.0000 N   0  0  0  0  0  0  0  2  0  0  0  0
    0.7145    0.4125    0.0000 C   0  0  0  0  0  0  0  2  0  0  0  0
    0.0000    0.8250    0.0000 C   0  0  0  0  0  0  0  2  0  0  0  0
    0.0000    1.6500    0.0000 C   0  0  0  0  0  0  0  2  0  0  0  0
    0.7145    2.0625    0.0000 C   0  0  0  0  0  0  0  2  0  0  0  0
    1.4289    1.6500    0.0000 C   0  0  0  0  0  0  0  2  0  0  0  0
    2.1434    2.0625    0.0000 O   0  0  0  0  0  0  0  2  0  0  0  0
    2.8579    1.6500    0.0000 C   0  0  0  0  0  0  0  2  0  0  0  0
    3.5724    2.0625    0.0000 C   0  0  0  0  0  0  0  2  0  0  0  0
    4.2868    1.6500    0.0000 C   0  0  0  0  0  0  0  2  0  0  0  0
    4.2868    0.8250    0.0000 C   0  0  0  0  0  0  0  2  0  0  0  0
    3.5724    0.4125    0.0000 C   0  0  0  0  0  0  0  2  0  0  0  0
    2.8579    0.8250    0.0000 C   0  0  0  0  0  0  0  2  0  0  0  0
    1.4289    0.8250    0.0000 C   0  0  0  0  0  0  0  2  0  0  0  0
  1  2  1  0        0
  2  3  1  0        0
  2  4  1  0        0
  4  5  1  6        0
  4  6  1  1        0
  6  7  2  0        0
  7  8  1  0        0
  7  9  1  0        0
  4 10  1  0        0
  2 10  1  0        0
 10 11  1  6        0
 10 12  1  1        0
 12 13  2  0        0
 12 14  1  0        0
 14 15  1  0        0
 15 16  1  0        0
 16 17  3  0        0
 15 18  1  0        0
 18 19  4  0        0
 19 20  4  0        0
 20 21  4  0        0
 21 22  4  0        0
 22 23  1  0        0
 23 24  1  0        0
 24 25  4  0        0
 25 26  4  0        0
 26 27  4  0        0
 27 28  4  0        0
 28 29  4  0        0
 24 29  4  0        0
 22 30  4  0        0
 18 30  4  0        0
M  END
>  <CAS RN>
52918635

>  <SMILES>
CC1(C)[C@]([H])(C=C(Br)Br)[C@]1([H])C(=O)OC(C#N)c1cccc(Oc2ccccc2)c1

>  <Measured or Estimated Log10(mmol/L)>
-6.897169229

$$$$

CDXL12

 16 17  0  0  0  0  0  0  0  0999 V2000
    0.3572   -1.4438    0.0000 Cl  0  0  0  0  0  0  0  2  0  0  0  0
   -0.3572   -1.0313    0.0000 C   0  0  0  0  0  0  0  2  0  0  0  0
   -1.0717   -1.4437    0.0000 C   0  0  0  0  0  0  0  2  0  0  0  0
   -1.7862   -1.0313    0.0000 C   0  0  0  0  0  0  0  2  0  0  0  0
   -2.5006   -1.4437    0.0000 Cl  0  0  0  0  0  0  0  2  0  0  0  0
   -1.7862   -0.2062    0.0000 C   0  0  0  0  0  0  0  2  0  0  0  0
   -1.0717    0.2062    0.0000 C   0  0  0  0  0  0  0  2  0  0  0  0
   -0.3572   -0.2062    0.0000 C   0  0  0  0  0  0  0  2  0  0  0  0
    0.3572    0.2062    0.0000 C   0  0  0  0  0  0  0  2  0  0  0  0
    1.0717   -0.2063    0.0000 C   0  0  0  0  0  0  0  2  0  0  0  0
    1.7862    0.2062    0.0000 C   0  0  0  0  0  0  0  2  0  0  0  0
    1.7862    1.0312    0.0000 C   0  0  0  0  0  0  0  2  0  0  0  0
    2.5006    1.4437    0.0000 Cl  0  0  0  0  0  0  0  2  0  0  0  0
    1.0717    1.4437    0.0000 C   0  0  0  0  0  0  0  2  0  0  0  0
    0.3572    1.0312    0.0000 C   0  0  0  0  0  0  0  2  0  0  0  0
   -0.3572    1.4438    0.0000 Cl  0  0  0  0  0  0  0  2  0  0  0  0
  1  2  1  0        0
  2  3  4  0        0
  3  4  4  0        0
  4  5  1  0        0
  4  6  4  0        0
  6  7  4  0        0
  7  8  4  0        0
  2  8  4  0        0
  8  9  1  0        0
  9 10  4  0        0
 10 11  4  0        0
 11 12  4  0        0
 12 13  1  0        0
 12 14  4  0        0
 14 15  4  0        0
  9 15  4  0        0
 15 16  1  0        0
M  END
>  <CAS RN>
53469219

>  <SMILES>
Clc1cc(Cl)ccc1c1ccc(Cl)cc1Cl

>  <Measured or Estimated Log10(mmol/L)>
-3.176558032

$$$$

CDXL12

 10 10  0  0  0  0  0  0  0  0999 V2000
    0.7145    1.2375    0.0000 F   0  0  0  0  0  0  0  2  0  0  0  0
    0.7145    0.4125    0.0000 C   0  0  0  0  0  0  0  2  0  0  0  0
    1.4289   -0.0000    0.0000 C   0  0  0  0  0  0  0  2  0  0  0  0
    1.4289   -0.8250    0.0000 C   0  0  0  0  0  0  0  2  0  0  0  0
    0.7145   -1.2375    0.0000 C   0  0  0  0  0  0  0  2  0  0  0  0
    0.0000   -0.8250    0.0000 C   0  0  0  0  0  0  0  2  0  0  0  0
   -0.7145   -1.2375    0.0000 Cl  0  0  0  0  0  0  0  2  0  0  0  0
    0.0000   -0.0000    0.0000 C   0  0  0  0  0  0  0  2  0  0  0  0
   -0.7145    0.4125    0.0000 C   0  0  0  0  0  0  0  2  0  0  0  0
   -1.4289   -0.0000    0.0000 Cl  0  0  0  0  0  0  0  2  0  0  0  0
  1  2  1  0        0
  2  3  4  0        0
  3  4  4  0        0
  4  5  4  0        0
  5  6  4  0        0
  6  7  1  0        0
  6  8  4  0        0
  2  8  4  0        0
  8  9  1  0        0
  9 10  1  0        0
M  END
>  <CAS RN>
55117152

>  <SMILES>
Fc1cccc(Cl)c1CCl

>  <Measured or Estimated Log10(mmol/L)>
-2.67312037

$$$$

CDXL12

 12 12  0  0  0  0  0  0  0  0999 V2000
    1.4289   -0.5635    0.0000 C   0  0  0  0  0  0  0  2  0  0  0  0
    0.7145   -0.1510    0.0000 C   0  0  0  0  0  0  0  2  0  0  0  0
    0.0000   -0.5635    0.0000 C   0  0  0  0  0  0  0  2  0  0  0  0
    0.0000   -1.3885    0.0000 C   0  0  0  0  0  0  0  2  0  0  0  0
   -0.7145   -0.1510    0.0000 S   0  0  0  0  0  0  0  2  0  0  0  0
   -1.5395   -0.1510    0.0000 O   0  0  0  0  0  0  0  2  0  0  0  0
   -1.1270   -0.8655    0.0000 O   0  0  0  0  0  0  0  2  0  0  0  0
   -0.7145    0.6740    0.0000 C   0  0  0  0  0  0  0  2  0  0  0  0
    0.0000    1.0865    0.0000 C   0  0  0  0  0  0  0  2  0  0  0  0
    0.7145    0.6740    0.0000 S   0  0  0  0  0  0  0  2  0  0  0  0
    1.5395    0.6740    0.0000 O   0  0  0  0  0  0  0  2  0  0  0  0
    1.1270    1.3885    0.0000 O   0  0  0  0  0  0  0  2  0  0  0  0
  1  2  1  0        0
  2  3  2  0        0
  3  4  1  0        0
  3  5  1  0        0
  5  6  2  0        0
  5  7  2  0        0
  5  8  1  0        0
  8  9  1  0        0
  9 10  1  0        0
  2 10  1  0        0
 10 11  2  0        0
 10 12  2  0        0
M  END
>  <CAS RN>
55290647

>  <SMILES>
C\C\1=C(/C)\S(=O)(=O)CCS1(=O)=O

>  <Measured or Estimated Log10(mmol/L)>
-0.720717313

$$$$

CDXL12

 34 35  0  0  0  0  0  0  0  0999 V2000
   -6.1318   -0.1435    0.0000 C   0  0  0  0  0  0  0  2  0  0  0  0
   -5.4173   -0.5560    0.0000 C   0  0  0  0  0  0  0  2  0  0  0  0
   -4.7029   -0.1435    0.0000 N   0  0  0  0  0  0  0  2  0  0  0  0
   -4.7029    0.6815    0.0000 C   0  0  0  0  0  0  0  2  0  0  0  0
   -5.4173    1.0940    0.0000 C   0  0  0  0  0  0  0  2  0  0  0  0
   -3.9884   -0.5560    0.0000 C   0  0  0  0  0  0  0  2  0  0  0  0
   -3.2739   -0.1435    0.0000 C   0  0  0  0  0  0  0  2  0  0  0  0
   -2.5595   -0.5560    0.0000 S   0  0  0  0  0  0  0  2  0  0  0  0
   -1.8450   -0.1435    0.0000 C   0  0  0  0  0  0  0  2  0  0  0  0
   -1.1305   -0.5560    0.0000 C   0  0  0  0  0  0  0  2  0  0  0  0
   -1.1305   -1.3810    0.0000 O   0  0  0  0  0  0  0  2  0  0  0  0
   -0.4160   -0.1435    0.0000 O   0  0  0  0  0  0  0  2  0  0  0  0
    0.2984   -0.5560    0.0000 C   0  0  0  0  0  0  0  2  0  0  0  0
    1.0129   -0.1435    0.0000 C   0  0  0  0  0  0  0  2  0  0  0  0
    1.7274   -0.5560    0.0000 C   0  0  0  0  0  0  0  2  0  0  0  0
    1.7274    0.2690    0.0000 C   0  0  0  0  0  0  0  2  0  0  0  0
    1.7274   -1.3810    0.0000 C   0  0  0  0  0  0  0  2  0  0  0  0
    2.4418   -1.7935    0.0000 C   0  0  0  0  0  0  0  2  0  0  0  0
    2.4418   -0.1435    0.0000 C   0  0  0  0  0  0  0  2  0  0  0  0
    2.4418    0.6815    0.0000 O   0  0  0  0  0  0  0  2  0  0  0  0
    3.1563   -0.5560    0.0000 C   0  0  0  0  0  0  0  2  0  0  0  0
    3.1563   -1.3810    0.0000 C   0  0  0  0  0  0  0  2  0  0  0  0
    3.8708   -0.1435    0.0000 C   0  0  0  0  0  0  0  2  0  0  0  0
    3.9570   -0.9640    0.0000 C   0  0  0  0  0  0  0  2  0  0  0  0
    4.7107   -1.2995    0.0000 C   0  0  0  0  0  0  0  2  0  0  0  0
    5.3781   -0.8146    0.0000 C   0  0  0  0  0  0  0  2  0  0  0  0
    6.1318   -1.1502    0.0000 C   0  0  0  0  0  0  0  2  0  0  0  0
    5.2919    0.0059    0.0000 C   0  0  0  0  0  0  0  2  0  0  0  0
    4.5382    0.3414    0.0000 C   0  0  0  0  0  0  0  2  0  0  0  0
    4.2833    1.1261    0.0000 C   0  0  0  0  0  0  0  2  0  0  0  0
    3.4583    1.1261    0.0000 C   0  0  0  0  0  0  0  2  0  0  0  0
    3.2033    0.3414    0.0000 C   0  0  0  0  0  0  0  2  0  0  0  0
    4.7682    1.7935    0.0000 O   0  0  0  0  0  0  0  2  0  0  0  0
    5.9593    0.4908    0.0000 C   0  0  0  0  0  0  0  2  0  0  0  0
  1  2  1  0        0
  2  3  1  0        0
  3  4  1  0        0
  4  5  1  0        0
  3  6  1  0        0
  6  7  1  0        0
  7  8  1  0        0
  8  9  1  0        0
  9 10  1  0        0
 10 11  2  0        0
 10 12  1  0        0
 12 13  1  0        0
 13 14  1  0        0
 14 15  1  0        0
 15 16  1  0        0
 15 17  1  0        0
 17 18  2  0        0
 15 19  1  0        0
 19 20  1  0        0
 19 21  1  0        0
 21 22  1  0        0
 21 23  1  0        0
 23 24  1  0        0
 24 25  1  0        0
 25 26  1  0        0
 26 27  1  0        0
 26 28  1  0        0
 28 29  1  0        0
 23 29  1  0        0
 29 30  1  0        0
 30 31  1  0        0
 31 32  1  0        0
 23 32  1  0        0
 30 33  2  0        0
 28 34  1  0        0
M  END
>  <CAS RN>
55297955

>  <SMILES>
CCN(CC)CCSCC(=O)OCCC(C)(C=C)C(O)C(C)C12CCC(C)C(C1C(CC2)=O)C

>  <Measured or Estimated Log10(mmol/L)>
-0.786792587

$$$$

CDXL12

 12 11  0  0  0  0  0  0  0  0999 V2000
   -3.5724   -0.2062    0.0000 C   0  0  0  0  0  0  0  2  0  0  0  0
   -2.8579    0.2063    0.0000 C   0  0  0  0  0  0  0  2  0  0  0  0
   -2.1434   -0.2062    0.0000 C   0  0  0  0  0  0  0  2  0  0  0  0
   -1.4289    0.2063    0.0000 C   0  0  0  0  0  0  0  2  0  0  0  0
   -0.7145   -0.2062    0.0000 N   0  0  0  0  0  0  0  2  0  0  0  0
    0.0000    0.2062    0.0000 C   0  0  0  0  0  0  0  2  0  0  0  0
    0.0000    1.0312    0.0000 O   0  0  0  0  0  0  0  2  0  0  0  0
    0.7145   -0.2062    0.0000 O   0  0  0  0  0  0  0  2  0  0  0  0
    1.4289    0.2062    0.0000 C   0  0  0  0  0  0  0  2  0  0  0  0
    2.1434   -0.2062    0.0000 C   0  0  0  0  0  0  0  2  0  0  0  0
    2.8579   -0.6187    0.0000 C   0  0  0  0  0  0  0  2  0  0  0  0
    3.5724   -1.0312    0.0000 I   0  0  0  0  0  0  0  2  0  0  0  0
  1  2  1  0        0
  2  3  1  0        0
  3  4  1  0        0
  4  5  1  0        0
  5  6  1  0        0
  6  7  2  0        0
  6  8  1  0        0
  8  9  1  0        0
  9 10  1  0        0
 10 11  3  0        0
 11 12  1  0        0
M  END
>  <CAS RN>
55406536

>  <SMILES>
CCCCNC(=O)OCC#CI

>  <Measured or Estimated Log10(mmol/L)>
-3.846790033

$$$$

CDXL12

 23 23  0  0  0  0  0  0  0  0999 V2000
   -2.8491   -1.8030    0.0000 C   0  0  0  0  0  0  0  2  0  0  0  0
   -3.5636   -1.3905    0.0000 C   0  0  0  0  0  0  0  2  0  0  0  0
   -3.5636   -0.5655    0.0000 C   0  0  0  0  0  0  0  2  0  0  0  0
   -2.8491   -0.1530    0.0000 C   0  0  0  0  0  0  0  2  0  0  0  0
   -2.1346   -0.5655    0.0000 C   0  0  0  0  0  0  0  2  0  0  0  0
   -2.1346   -1.3905    0.0000 C   0  0  0  0  0  0  0  2  0  0  0  0
   -1.4202   -1.8030    0.0000 C   0  0  0  0  0  0  0  2  0  0  0  0
   -1.4202   -0.1530    0.0000 O   0  0  0  0  0  0  0  2  0  0  0  0
   -0.7057   -0.5655    0.0000 C   0  0  0  0  0  0  0  2  0  0  0  0
    0.0088   -0.1530    0.0000 C   0  0  0  0  0  0  0  2  0  0  0  0
    0.0088    0.6720    0.0000 O   0  0  0  0  0  0  0  2  0  0  0  0
    0.7232   -0.5655    0.0000 O   0  0  0  0  0  0  0  2  0  0  0  0
    1.4377   -0.1530    0.0000 N   0  0  0  0  0  0  0  2  0  0  0  0
    0.8246    0.3991    0.0000 H   0  0  0  0  0  0  0  2  0  0  0  0
    1.6092   -0.9599    0.0000 C   0  0  0  0  0  0  0  2  0  0  0  0
    2.3939   -1.2149    0.0000 C   0  0  0  0  0  0  0  2  0  0  0  0
    2.5654   -2.0218    0.0000 O   0  0  0  0  0  0  0  2  0  0  0  0
    1.7733    0.6007    0.0000 C   0  0  0  0  0  0  0  2  0  0  0  0
    1.2883    1.2682    0.0000 C   0  0  0  0  0  0  0  2  0  0  0  0
    1.6239    2.0218    0.0000 O   0  0  0  0  0  0  0  2  0  0  0  0
    2.2582   -0.2392    0.0000 C   0  0  0  0  0  0  0  2  0  0  0  0
    2.7431    0.4282    0.0000 C   0  0  0  0  0  0  0  2  0  0  0  0
    3.5636    0.3420    0.0000 O   0  0  0  0  0  0  0  2  0  0  0  0
  1  2  4  0        0
  2  3  4  0        0
  3  4  4  0        0
  4  5  4  0        0
  5  6  4  0        0
  1  6  4  0        0
  6  7  1  0        0
  5  8  1  0        0
  8  9  1  0        0
  9 10  1  0        0
 10 11  1  0        0
 10 12  2  0        0
 12 13  1  0        0
 13 14  1  0        0
 13 15  1  0        0
 15 16  1  0        0
 16 17  1  0        0
 13 18  1  0        0
 18 19  1  0        0
 19 20  1  0        0
 13 21  1  0        0
 21 22  1  0        0
 22 23  1  0        0
M  END
>  <CAS RN>
55543685

>  <SMILES>
c1cccc(c1C)OCC(O)=ON([H])(CCO)(CCO)CCO

>  <Measured or Estimated Log10(mmol/L)>
1.209153567

$$$$

CDXL12

 24 24  0  0  0  0  0  0  0  0999 V2000
   -1.0717   -1.8563    0.0000 C   0  0  0  0  0  0  0  2  0  0  0  0
   -0.3572   -2.2687    0.0000 C   0  0  0  0  0  0  0  2  0  0  0  0
    0.3572   -1.8562    0.0000 C   0  0  0  0  0  0  0  2  0  0  0  0
    0.3572   -1.0313    0.0000 C   0  0  0  0  0  0  0  2  0  0  0  0
   -0.3572   -0.6188    0.0000 C   0  0  0  0  0  0  0  2  0  0  0  0
   -1.0717   -1.0313    0.0000 C   0  0  0  0  0  0  0  2  0  0  0  0
   -1.7862   -0.6188    0.0000 O   0  0  0  0  0  0  0  2  0  0  0  0
   -2.5006   -1.0313    0.0000 Na  0  0  0  0  0  0  0  2  0  0  0  0
   -0.3572    0.2062    0.0000 C   0  0  0  0  0  0  0  2  0  0  0  0
    0.3572    0.6188    0.0000 N   0  0  0  0  0  0  0  2  0  0  0  0
    0.3572    1.4438    0.0000 O   0  0  0  0  0  0  0  2  0  0  0  0
    1.0717    1.8563    0.0000 C   0  0  0  0  0  0  0  2  0  0  0  0
    1.0717    2.6812    0.0000 C   0  0  0  0  0  0  0  2  0  0  0  0
    1.7862    3.0938    0.0000 C   0  0  0  0  0  0  0  2  0  0  0  0
   -1.0717    0.6188    0.0000 C   0  0  0  0  0  0  0  2  0  0  0  0
   -1.7862    0.2062    0.0000 C   0  0  0  0  0  0  0  2  0  0  0  0
   -2.5006    0.6187    0.0000 C   0  0  0  0  0  0  0  2  0  0  0  0
    1.0717   -0.6188    0.0000 O   0  0  0  0  0  0  0  2  0  0  0  0
    1.0717   -2.2687    0.0000 C   0  0  0  0  0  0  0  2  0  0  0  0
    1.0717   -3.0938    0.0000 O   0  0  0  0  0  0  0  2  0  0  0  0
    1.7862   -1.8562    0.0000 O   0  0  0  0  0  0  0  2  0  0  0  0
    2.5006   -2.2687    0.0000 C   0  0  0  0  0  0  0  2  0  0  0  0
   -0.7697   -2.9832    0.0000 C   0  0  0  0  0  0  0  2  0  0  0  0
    0.0553   -2.9832    0.0000 C   0  0  0  0  0  0  0  2  0  0  0  0
  1  2  1  0        0
  2  3  1  0        0
  3  4  1  0        0
  4  5  1  0        0
  5  6  2  0        0
  1  6  1  0        0
  6  7  1  0        0
  7  8  1  0        0
  5  9  1  0        0
  9 10  2  0        0
 10 11  1  0        0
 11 12  1  0        0
 12 13  1  0        0
 13 14  2  0        0
  9 15  1  0        0
 15 16  1  0        0
 16 17  1  0        0
  4 18  2  0        0
  3 19  1  0        0
 19 20  2  0        0
 19 21  1  0        0
 21 22  1  0        0
  2 23  1  0        0
  2 24  1  0        0
M  END
>  <CAS RN>
55635137

>  <SMILES>
C/1C(C(C(/C(=C1/O[Na])/C(=N/OCC=C)/CCC)=O)C(=O)OC)(C)C

>  <Measured or Estimated Log10(mmol/L)>
0.162417849

$$$$

CDXL12

 10 10  0  0  0  0  0  0  0  0999 V2000
    2.1434   -0.4125    0.0000 Cl  0  0  0  0  0  0  0  2  0  0  0  0
    1.4289    0.0000    0.0000 C   0  0  0  0  0  0  0  2  0  0  0  0
    1.4289    0.8250    0.0000 C   0  0  0  0  0  0  0  2  0  0  0  0
    0.7145    1.2375    0.0000 C   0  0  0  0  0  0  0  2  0  0  0  0
    0.0000    0.8250    0.0000 C   0  0  0  0  0  0  0  2  0  0  0  0
    0.0000    0.0000    0.0000 C   0  0  0  0  0  0  0  2  0  0  0  0
    0.7145   -0.4125    0.0000 C   0  0  0  0  0  0  0  2  0  0  0  0
   -0.7145   -0.4125    0.0000 C   0  0  0  0  0  0  0  2  0  0  0  0
   -1.4289   -0.8250    0.0000 C   0  0  0  0  0  0  0  2  0  0  0  0
   -2.1434   -1.2375    0.0000 C   0  0  0  0  0  0  0  2  0  0  0  0
  1  2  1  0        0
  2  3  1  0        0
  3  4  1  0        0
  4  5  1  0        0
  5  6  1  0        0
  6  7  1  0        0
  2  7  1  0        0
  6  8  1  0        0
  8  9  3  0        0
  9 10  1  0        0
M  END
>  <CAS RN>
55723994

>  <SMILES>
ClC1CCCC(C1)C#CC

>  <Measured or Estimated Log10(mmol/L)>
-2

$$$$

CDXL12

  7  7  0  0  0  0  0  0  0  0999 V2000
   -1.0717   -0.4125    0.0000 C   0  0  0  0  0  0  0  2  0  0  0  0
   -1.0717    0.4125    0.0000 C   0  0  0  0  0  0  0  2  0  0  0  0
   -0.3572    0.8250    0.0000 N   0  0  0  0  0  0  0  2  0  0  0  0
    0.3572    0.4125    0.0000 C   0  0  0  0  0  0  0  2  0  0  0  0
    1.0717    0.8250    0.0000 O   0  0  0  0  0  0  0  2  0  0  0  0
    0.3572   -0.4125    0.0000 N   0  0  0  0  0  0  0  2  0  0  0  0
   -0.3572   -0.8250    0.0000 C   0  0  0  0  0  0  0  2  0  0  0  0
  1  2  2  0        0
  2  3  1  0        0
  3  4  1  0        0
  4  5  2  0        0
  4  6  1  0        0
  6  7  2  0        0
  1  7  1  0        0
M  END
>  <CAS RN>
55949387

>  <SMILES>
C/1=C/NC(=O)/N=C1

>  <Measured or Estimated Log10(mmol/L)>
0.438675958

$$$$

CDXL12

 27 29  0  0  0  0  0  0  0  0999 V2000
   -0.7145    0.2062    0.0000 P   0  0  0  0  0  0  0  2  0  0  0  0
    0.0000   -0.2062    0.0000 O   0  0  0  0  0  0  0  2  0  0  0  0
    0.7145    0.2062    0.0000 C   0  0  0  0  0  0  0  2  0  0  0  0
    0.7145    1.0312    0.0000 C   0  0  0  0  0  0  0  2  0  0  0  0
    1.4289    1.4438    0.0000 C   0  0  0  0  0  0  0  2  0  0  0  0
    2.1434    1.0313    0.0000 C   0  0  0  0  0  0  0  2  0  0  0  0
    2.1434    0.2062    0.0000 C   0  0  0  0  0  0  0  2  0  0  0  0
    1.4289   -0.2062    0.0000 C   0  0  0  0  0  0  0  2  0  0  0  0
    2.8579    1.4438    0.0000 C   0  0  0  0  0  0  0  2  0  0  0  0
    2.8579    2.2687    0.0000 C   0  0  0  0  0  0  0  2  0  0  0  0
    3.5724    1.8563    0.0000 C   0  0  0  0  0  0  0  2  0  0  0  0
    3.5724    1.0313    0.0000 C   0  0  0  0  0  0  0  2  0  0  0  0
   -1.4289   -0.2062    0.0000 O   0  0  0  0  0  0  0  2  0  0  0  0
   -2.1434    0.2062    0.0000 C   0  0  0  0  0  0  0  2  0  0  0  0
   -2.8579   -0.2062    0.0000 C   0  0  0  0  0  0  0  2  0  0  0  0
   -3.5724    0.2062    0.0000 C   0  0  0  0  0  0  0  2  0  0  0  0
   -3.5724    1.0313    0.0000 C   0  0  0  0  0  0  0  2  0  0  0  0
   -2.8579    1.4438    0.0000 C   0  0  0  0  0  0  0  2  0  0  0  0
   -2.1434    1.0312    0.0000 C   0  0  0  0  0  0  0  2  0  0  0  0
   -0.7145   -0.6188    0.0000 O   0  0  0  0  0  0  0  2  0  0  0  0
    0.0000   -1.0313    0.0000 C   0  0  0  0  0  0  0  2  0  0  0  0
    0.7145   -0.6188    0.0000 C   0  0  0  0  0  0  0  2  0  0  0  0
    1.4289   -1.0313    0.0000 C   0  0  0  0  0  0  0  2  0  0  0  0
    1.4289   -1.8563    0.0000 C   0  0  0  0  0  0  0  2  0  0  0  0
    0.7145   -2.2687    0.0000 C   0  0  0  0  0  0  0  2  0  0  0  0
    0.0000   -1.8563    0.0000 C   0  0  0  0  0  0  0  2  0  0  0  0
   -0.7145    1.0313    0.0000 O   0  0  0  0  0  0  0  2  0  0  0  0
  1  2  1  0        0
  2  3  1  0        0
  3  4  4  0        0
  4  5  4  0        0
  5  6  4  0        0
  6  7  4  0        0
  7  8  4  0        0
  3  8  4  0        0
  6  9  1  0        0
  9 10  1  0        0
  9 11  1  0        0
  9 12  1  0        0
  1 13  1  0        0
 13 14  1  0        0
 14 15  4  0        0
 15 16  4  0        0
 16 17  4  0        0
 17 18  4  0        0
 18 19  4  0        0
 14 19  4  0        0
  1 20  1  0        0
 20 21  1  0        0
 21 22  4  0        0
 22 23  4  0        0
 23 24  4  0        0
 24 25  4  0        0
 25 26  4  0        0
 21 26  4  0        0
  1 27  2  0        0
M  END
>  <CAS RN>
56803373

>  <SMILES>
P(Oc1ccc(cc1)C(C)(C)C)(Oc1ccccc1)(Oc1ccccc1)=O

>  <Measured or Estimated Log10(mmol/L)>
-3.047777034

$$$$

CDXL12

 23 25  0  0  0  0  0  0  0  0999 V2000
   -2.5006   -1.8563    0.0000 C   0  0  0  0  0  0  0  2  0  0  0  0
   -2.5006   -1.0313    0.0000 C   0  0  0  0  0  0  0  2  0  0  0  0
   -3.2151   -0.6188    0.0000 C   0  0  0  0  0  0  0  2  0  0  0  0
   -1.7862   -0.6188    0.0000 C   0  0  0  0  0  0  0  2  0  0  0  0
   -1.0717   -1.0313    0.0000 C   0  0  0  0  0  0  0  2  0  0  0  0
   -1.0717   -1.8563    0.0000 Cl  0  0  0  0  0  0  0  2  0  0  0  0
   -0.3572   -0.6188    0.0000 C   0  0  0  0  0  0  0  2  0  0  0  0
    0.3572   -1.0312    0.0000 C   0  0  0  0  0  0  0  2  0  0  0  0
    1.0717   -0.6187    0.0000 C   0  0  0  0  0  0  0  2  0  0  0  0
    1.0717    0.2062    0.0000 C   0  0  0  0  0  0  0  2  0  0  0  0
    1.7862    0.6188    0.0000 C   0  0  0  0  0  0  0  2  0  0  0  0
    1.7862   -0.2062    0.0000 C   0  0  0  0  0  0  0  2  0  0  0  0
    2.5006    0.2062    0.0000 C   0  0  0  0  0  0  0  2  0  0  0  0
    2.5006   -0.6187    0.0000 O   0  0  0  0  0  0  0  2  0  0  0  0
    3.2151    0.6188    0.0000 O   0  0  0  0  0  0  0  2  0  0  0  0
    1.7862    1.4438    0.0000 C   0  0  0  0  0  0  0  2  0  0  0  0
    1.0717    1.8563    0.0000 C   0  0  0  0  0  0  0  2  0  0  0  0
    0.3572    1.4438    0.0000 C   0  0  0  0  0  0  0  2  0  0  0  0
    0.3572    0.6188    0.0000 C   0  0  0  0  0  0  0  2  0  0  0  0
   -0.3572    1.0313    0.0000 C   0  0  0  0  0  0  0  2  0  0  0  0
   -0.3572    0.2062    0.0000 C   0  0  0  0  0  0  0  2  0  0  0  0
   -1.0717    0.6187    0.0000 C   0  0  0  0  0  0  0  2  0  0  0  0
   -1.7862    0.2062    0.0000 C   0  0  0  0  0  0  0  2  0  0  0  0
  1  2  1  0        0
  2  3  1  0        0
  2  4  1  0        0
  4  5  4  0        0
  5  6  1  0        0
  5  7  4  0        0
  7  8  1  0        0
  8  9  1  0        0
  9 10  1  0        0
 10 11  1  0        0
 11 12  1  0        0
 11 13  1  0        0
 13 14  2  0        0
 13 15  1  0        0
 11 16  1  0        0
 16 17  1  0        0
 17 18  1  0        0
 18 19  1  0        0
 10 19  1  0        0
 19 20  1  0        0
 19 21  1  0        0
  7 21  4  0        0
 21 22  4  0        0
 22 23  4  0        0
  4 23  4  0        0
M  END
>  <CAS RN>
57055386

>  <SMILES>
CC(C)c1c(Cl)c2CCC3C(C)(C(=O)O)CCCC3(C)c2cc1

>  <Measured or Estimated Log10(mmol/L)>
-1.884595214

$$$$

CDXL12

 24 26  0  0  0  0  0  0  0  0999 V2000
    2.5006   -0.6187    0.0000 O   0  0  0  0  0  0  0  2  0  0  0  0
    2.5006    0.2062    0.0000 C   0  0  0  0  0  0  0  2  0  0  0  0
    1.7862    0.6187    0.0000 C   0  0  0  0  0  0  0  2  0  0  0  0
    1.0717    0.2062    0.0000 C   0  0  0  0  0  0  0  2  0  0  0  0
    0.3572    0.6187    0.0000 C   0  0  0  0  0  0  0  2  0  0  0  0
   -0.3572    0.2063    0.0000 C   0  0  0  0  0  0  0  2  0  0  0  0
   -0.3572   -0.6187    0.0000 C   0  0  0  0  0  0  0  2  0  0  0  0
   -1.0717   -1.0312    0.0000 C   0  0  0  0  0  0  0  2  0  0  0  0
   -1.7862   -0.6187    0.0000 C   0  0  0  0  0  0  0  2  0  0  0  0
   -1.7862    0.2063    0.0000 C   0  0  0  0  0  0  0  2  0  0  0  0
   -1.0717    0.6188    0.0000 C   0  0  0  0  0  0  0  2  0  0  0  0
   -2.5006    0.6188    0.0000 Cl  0  0  0  0  0  0  0  2  0  0  0  0
   -2.5006   -1.0312    0.0000 C   0  0  0  0  0  0  0  2  0  0  0  0
   -2.5006   -1.8562    0.0000 C   0  0  0  0  0  0  0  2  0  0  0  0
   -3.2151   -0.6187    0.0000 C   0  0  0  0  0  0  0  2  0  0  0  0
   -1.0717   -1.8562    0.0000 Cl  0  0  0  0  0  0  0  2  0  0  0  0
    0.3572   -1.0312    0.0000 C   0  0  0  0  0  0  0  2  0  0  0  0
    1.0717   -0.6187    0.0000 C   0  0  0  0  0  0  0  2  0  0  0  0
    0.3572    1.4438    0.0000 C   0  0  0  0  0  0  0  2  0  0  0  0
    1.0717    1.8562    0.0000 C   0  0  0  0  0  0  0  2  0  0  0  0
    1.7862    1.4437    0.0000 C   0  0  0  0  0  0  0  2  0  0  0  0
   -0.3572    1.0313    0.0000 C   0  0  0  0  0  0  0  2  0  0  0  0
    1.7862   -0.2062    0.0000 C   0  0  0  0  0  0  0  2  0  0  0  0
    3.2151    0.6187    0.0000 O   0  0  0  0  0  0  0  2  0  0  0  0
  1  2  2  0        0
  2  3  1  0        0
  3  4  1  0        0
  4  5  1  0        0
  5  6  1  0        0
  6  7  4  0        0
  7  8  4  0        0
  8  9  4  0        0
  9 10  4  0        0
 10 11  4  0        0
  6 11  4  0        0
 10 12  1  0        0
  9 13  1  0        0
 13 14  1  0        0
 13 15  1  0        0
  8 16  1  0        0
  7 17  1  0        0
 17 18  1  0        0
  4 18  1  0        0
  5 19  1  0        0
 19 20  1  0        0
 20 21  1  0        0
  3 21  1  0        0
  5 22  1  0        0
  3 23  1  0        0
  2 24  1  0        0
M  END
>  <CAS RN>
57055397

>  <SMILES>
O=C(C1(C2C(c3c(c(c(c(c3)Cl)C(C)C)Cl)CC2)(CCC1)C)C)O

>  <Measured or Estimated Log10(mmol/L)>
-1.953047098

$$$$

CDXL12

 24 26  0  0  0  0  0  0  0  0999 V2000
    2.5006   -0.6187    0.0000 O   0  0  0  0  0  0  0  2  0  0  0  0
    2.5006    0.2062    0.0000 C   0  0  0  0  0  0  0  2  0  0  0  0
    1.7862    0.6187    0.0000 C   0  0  0  0  0  0  0  2  0  0  0  0
    1.0717    0.2062    0.0000 C   0  0  0  0  0  0  0  2  0  0  0  0
    0.3572    0.6187    0.0000 C   0  0  0  0  0  0  0  2  0  0  0  0
   -0.3572    0.2063    0.0000 C   0  0  0  0  0  0  0  2  0  0  0  0
   -0.3572   -0.6187    0.0000 C   0  0  0  0  0  0  0  2  0  0  0  0
   -1.0717   -1.0312    0.0000 C   0  0  0  0  0  0  0  2  0  0  0  0
   -1.7862   -0.6187    0.0000 C   0  0  0  0  0  0  0  2  0  0  0  0
   -1.7862    0.2063    0.0000 C   0  0  0  0  0  0  0  2  0  0  0  0
   -1.0717    0.6188    0.0000 C   0  0  0  0  0  0  0  2  0  0  0  0
   -2.5006    0.6188    0.0000 Cl  0  0  0  0  0  0  0  2  0  0  0  0
   -2.5006   -1.0312    0.0000 C   0  0  0  0  0  0  0  2  0  0  0  0
   -2.5006   -1.8562    0.0000 C   0  0  0  0  0  0  0  2  0  0  0  0
   -3.2151   -0.6187    0.0000 C   0  0  0  0  0  0  0  2  0  0  0  0
   -1.0717   -1.8562    0.0000 Cl  0  0  0  0  0  0  0  2  0  0  0  0
    0.3572   -1.0312    0.0000 C   0  0  0  0  0  0  0  2  0  0  0  0
    1.0717   -0.6187    0.0000 C   0  0  0  0  0  0  0  2  0  0  0  0
    0.3572    1.4438    0.0000 C   0  0  0  0  0  0  0  2  0  0  0  0
    1.0717    1.8562    0.0000 C   0  0  0  0  0  0  0  2  0  0  0  0
    1.7862    1.4437    0.0000 C   0  0  0  0  0  0  0  2  0  0  0  0
   -0.3572    1.0313    0.0000 C   0  0  0  0  0  0  0  2  0  0  0  0
    1.7862   -0.2062    0.0000 C   0  0  0  0  0  0  0  2  0  0  0  0
    3.2151    0.6187    0.0000 O   0  0  0  0  0  0  0  2  0  0  0  0
  1  2  2  0        0
  2  3  1  0        0
  3  4  1  0        0
  4  5  1  0        0
  5  6  1  0        0
  6  7  4  0        0
  7  8  4  0        0
  8  9  4  0        0
  9 10  4  0        0
 10 11  4  0        0
  6 11  4  0        0
 10 12  1  0        0
  9 13  1  0        0
 13 14  1  0        0
 13 15  1  0        0
  8 16  1  0        0
  7 17  1  0        0
 17 18  1  0        0
  4 18  1  0        0
  5 19  1  0        0
 19 20  1  0        0
 20 21  1  0        0
  3 21  1  0        0
  5 22  1  0        0
  3 23  1  0        0
  2 24  1  0        0
M  END
>  <CAS RN>
57057837

>  <SMILES>
O=C(C1(C2C(c3c(c(c(c(c3)Cl)C(C)C)Cl)CC2)(CCC1)C)C)O

>  <Measured or Estimated Log10(mmol/L)>
-2.928547192

$$$$

CDXL12

 27 26  0  0  0  0  0  0  0  0999 V2000
    7.8592    0.6187    0.0000 C   0  0  0  0  0  0  0  2  0  0  0  0
    7.8592   -0.2062    0.0000 C   0  0  0  0  0  0  0  2  0  0  0  0
    8.5737   -0.6188    0.0000 C   0  0  0  0  0  0  0  2  0  0  0  0
    7.1447   -0.6188    0.0000 C   0  0  0  0  0  0  0  2  0  0  0  0
    6.4302   -0.2062    0.0000 C   0  0  0  0  0  0  0  2  0  0  0  0
    5.7158   -0.6188    0.0000 C   0  0  0  0  0  0  0  2  0  0  0  0
    5.0013   -0.2062    0.0000 C   0  0  0  0  0  0  0  2  0  0  0  0
    4.2868   -0.6188    0.0000 C   0  0  0  0  0  0  0  2  0  0  0  0
    3.5724   -0.2062    0.0000 C   0  0  0  0  0  0  0  2  0  0  0  0
    2.8579   -0.6188    0.0000 C   0  0  0  0  0  0  0  2  0  0  0  0
    2.1434   -0.2062    0.0000 C   0  0  0  0  0  0  0  2  0  0  0  0
    1.4289   -0.6188    0.0000 C   0  0  0  0  0  0  0  2  0  0  0  0
    0.7145   -0.2062    0.0000 C   0  0  0  0  0  0  0  2  0  0  0  0
   -0.0000   -0.6188    0.0000 N   0  0  0  0  0  0  0  2  0  0  0  0
   -0.7145   -0.2062    0.0000 C   0  0  0  0  0  0  0  2  0  0  0  0
   -1.4289   -0.6188    0.0000 C   0  0  0  0  0  0  0  2  0  0  0  0
   -2.1434   -0.2062    0.0000 C   0  0  0  0  0  0  0  2  0  0  0  0
   -2.8579   -0.6188    0.0000 C   0  0  0  0  0  0  0  2  0  0  0  0
   -3.5724   -0.2062    0.0000 C   0  0  0  0  0  0  0  2  0  0  0  0
   -4.2868   -0.6188    0.0000 C   0  0  0  0  0  0  0  2  0  0  0  0
   -5.0013   -0.2062    0.0000 C   0  0  0  0  0  0  0  2  0  0  0  0
   -5.7158   -0.6188    0.0000 C   0  0  0  0  0  0  0  2  0  0  0  0
   -6.4302   -0.2062    0.0000 C   0  0  0  0  0  0  0  2  0  0  0  0
   -7.1447   -0.6187    0.0000 C   0  0  0  0  0  0  0  2  0  0  0  0
   -7.8592   -0.2062    0.0000 C   0  0  0  0  0  0  0  2  0  0  0  0
   -8.5737   -0.6187    0.0000 C   0  0  0  0  0  0  0  2  0  0  0  0
   -7.8592    0.6188    0.0000 C   0  0  0  0  0  0  0  2  0  0  0  0
  1  2  1  0        0
  2  3  1  0        0
  2  4  1  0        0
  4  5  1  0        0
  5  6  1  0        0
  6  7  1  0        0
  7  8  1  0        0
  8  9  1  0        0
  9 10  1  0        0
 10 11  1  0        0
 11 12  1  0        0
 12 13  1  0        0
 13 14  1  0        0
 14 15  1  0        0
 15 16  1  0        0
 16 17  1  0        0
 17 18  1  0        0
 18 19  1  0        0
 19 20  1  0        0
 20 21  1  0        0
 21 22  1  0        0
 22 23  1  0        0
 23 24  1  0        0
 24 25  1  0        0
 25 26  1  0        0
 25 27  1  0        0
M  END
>  <CAS RN>
57157809

>  <SMILES>
CC(C)CCCCCCCCCCNCCCCCCCCCCC(C)C

>  <Measured or Estimated Log10(mmol/L)>
-3.39388826

$$$$

CDXL12

 21 21  0  0  0  0  0  0  0  0999 V2000
    3.3809   -0.6039    0.0000 C   0  0  0  0  0  0  0  2  0  0  0  0
    2.5559   -0.6039    0.0000 C   0  0  0  0  0  0  0  2  0  0  0  0
    2.1434    0.1105    0.0000 N   0  0  0  0  0  0  0  2  0  0  0  0
    2.8579    0.5230    0.0000 C   0  0  0  0  0  0  0  2  0  0  0  0
    3.5724    0.1105    0.0000 C   0  0  0  0  0  0  0  2  0  0  0  0
    1.7309    0.8250    0.0000 C   0  0  0  0  0  0  0  2  0  0  0  0
    2.1434    1.5395    0.0000 C   0  0  0  0  0  0  0  2  0  0  0  0
    1.4289   -0.3020    0.0000 O   0  0  0  0  0  0  0  2  0  0  0  0
    0.7145    0.1105    0.0000 C   0  0  0  0  0  0  0  2  0  0  0  0
    0.7145    0.9355    0.0000 O   0  0  0  0  0  0  0  2  0  0  0  0
    0.0000   -0.3020    0.0000 C   0  0  0  0  0  0  0  2  0  0  0  0
   -0.7145    0.1105    0.0000 O   0  0  0  0  0  0  0  2  0  0  0  0
   -1.4289   -0.3020    0.0000 C   0  0  0  0  0  0  0  2  0  0  0  0
   -2.1434    0.1105    0.0000 N   0  0  0  0  0  0  0  2  0  0  0  0
   -2.8579   -0.3020    0.0000 C   0  0  0  0  0  0  0  2  0  0  0  0
   -3.5724    0.1105    0.0000 Cl  0  0  0  0  0  0  0  2  0  0  0  0
   -2.8579   -1.1270    0.0000 C   0  0  0  0  0  0  0  2  0  0  0  0
   -3.5724   -1.5395    0.0000 Cl  0  0  0  0  0  0  0  2  0  0  0  0
   -2.1434   -1.5395    0.0000 C   0  0  0  0  0  0  0  2  0  0  0  0
   -1.4289   -1.1270    0.0000 C   0  0  0  0  0  0  0  2  0  0  0  0
   -0.7145   -1.5395    0.0000 Cl  0  0  0  0  0  0  0  2  0  0  0  0
  1  2  1  0        0
  2  3  1  0        0
  3  4  1  0        0
  4  5  1  0        0
  3  6  1  0        0
  6  7  1  0        0
  3  8  1  0        0
  8  9  1  0        0
  9 10  2  0        0
  9 11  1  0        0
 11 12  1  0        0
 12 13  1  0        0
 13 14  4  0        0
 14 15  4  0        0
 15 16  1  0        0
 15 17  4  0        0
 17 18  1  0        0
 17 19  4  0        0
 19 20  4  0        0
 13 20  4  0        0
 20 21  1  0        0
M  END
>  <CAS RN>
57213691

>  <SMILES>
CCN(CC)(CC)OC(=O)COc1nc(Cl)c(Cl)cc1Cl

>  <Measured or Estimated Log10(mmol/L)>
0.533872861

$$$$

CDXL12

 41 40  0  0  0  0  0  0  0  0999 V2000
   -2.1434   -3.7125    0.0000 O   0  0  0  0  0  0  0  2  0  0  0  0
   -2.1434   -2.8875    0.0000 C   0  0  0  0  0  0  0  2  0  0  0  0
   -1.4289   -2.4750    0.0000 C   0  0  0  0  0  0  0  2  0  0  0  0
   -0.7145   -2.8875    0.0000 S   0  0  0  0  0  0  0  2  0  0  0  0
    0.0000   -2.4750    0.0000 Sn  0  0  0  0  0  0  0  2  0  0  0  0
    0.7145   -2.8875    0.0000 S   0  0  0  0  0  0  0  2  0  0  0  0
    1.4289   -2.4750    0.0000 C   0  0  0  0  0  0  0  2  0  0  0  0
    2.1434   -2.8875    0.0000 C   0  0  0  0  0  0  0  2  0  0  0  0
    2.1434   -3.7125    0.0000 O   0  0  0  0  0  0  0  2  0  0  0  0
    2.8579   -2.4750    0.0000 O   0  0  0  0  0  0  0  2  0  0  0  0
    3.5724   -2.8875    0.0000 C   0  0  0  0  0  0  0  2  0  0  0  0
    4.2868   -2.4750    0.0000 C   0  0  0  0  0  0  0  2  0  0  0  0
    4.2868   -1.6500    0.0000 C   0  0  0  0  0  0  0  2  0  0  0  0
    5.0013   -1.2375    0.0000 C   0  0  0  0  0  0  0  2  0  0  0  0
    5.0013   -2.8875    0.0000 C   0  0  0  0  0  0  0  2  0  0  0  0
    5.7158   -2.4750    0.0000 C   0  0  0  0  0  0  0  2  0  0  0  0
    6.4302   -2.8875    0.0000 C   0  0  0  0  0  0  0  2  0  0  0  0
    7.1447   -2.4750    0.0000 C   0  0  0  0  0  0  0  2  0  0  0  0
    0.0000   -1.6500    0.0000 S   0  0  0  0  0  0  0  2  0  0  0  0
    0.7145   -1.2375    0.0000 C   0  0  0  0  0  0  0  2  0  0  0  0
    0.7145   -0.4125    0.0000 C   0  0  0  0  0  0  0  2  0  0  0  0
    0.0000    0.0000    0.0000 O   0  0  0  0  0  0  0  2  0  0  0  0
    1.4289    0.0000    0.0000 O   0  0  0  0  0  0  0  2  0  0  0  0
    1.4289    0.8250    0.0000 C   0  0  0  0  0  0  0  2  0  0  0  0
    2.1434    1.2375    0.0000 C   0  0  0  0  0  0  0  2  0  0  0  0
    2.8579    0.8250    0.0000 C   0  0  0  0  0  0  0  2  0  0  0  0
    3.5724    1.2375    0.0000 C   0  0  0  0  0  0  0  2  0  0  0  0
    2.1434    2.0625    0.0000 C   0  0  0  0  0  0  0  2  0  0  0  0
    2.8579    2.4750    0.0000 C   0  0  0  0  0  0  0  2  0  0  0  0
    2.8579    3.3000    0.0000 C   0  0  0  0  0  0  0  2  0  0  0  0
    3.5724    3.7125    0.0000 C   0  0  0  0  0  0  0  2  0  0  0  0
    0.0000   -3.3000    0.0000 C   0  0  0  0  0  0  0  2  0  0  0  0
   -2.8579   -2.4750    0.0000 O   0  0  0  0  0  0  0  2  0  0  0  0
   -3.5724   -2.8875    0.0000 C   0  0  0  0  0  0  0  2  0  0  0  0
   -4.2868   -2.4750    0.0000 C   0  0  0  0  0  0  0  2  0  0  0  0
   -4.2868   -1.6500    0.0000 C   0  0  0  0  0  0  0  2  0  0  0  0
   -5.0013   -1.2375    0.0000 C   0  0  0  0  0  0  0  2  0  0  0  0
   -5.0013   -2.8875    0.0000 C   0  0  0  0  0  0  0  2  0  0  0  0
   -5.7158   -2.4750    0.0000 C   0  0  0  0  0  0  0  2  0  0  0  0
   -6.4302   -2.8875    0.0000 C   0  0  0  0  0  0  0  2  0  0  0  0
   -7.1447   -2.4750    0.0000 C   0  0  0  0  0  0  0  2  0  0  0  0
  1  2  2  0        0
  2  3  1  0        0
  3  4  1  0        0
  4  5  1  0        0
  5  6  1  0        0
  6  7  1  0        0
  7  8  1  0        0
  8  9  2  0        0
  8 10  1  0        0
 10 11  1  0        0
 11 12  1  0        0
 12 13  1  0        0
 13 14  1  0        0
 12 15  1  0        0
 15 16  1  0        0
 16 17  1  0        0
 17 18  1  0        0
  5 19  1  0        0
 19 20  1  0        0
 20 21  1  0        0
 21 22  2  0        0
 21 23  1  0        0
 23 24  1  0        0
 24 25  1  0        0
 25 26  1  0        0
 26 27  1  0        0
 25 28  1  0        0
 28 29  1  0        0
 29 30  1  0        0
 30 31  1  0        0
  5 32  1  0        0
  2 33  1  0        0
 33 34  1  0        0
 34 35  1  0        0
 35 36  1  0        0
 36 37  1  0        0
 35 38  1  0        0
 38 39  1  0        0
 39 40  1  0        0
 40 41  1  0        0
M  END
>  <CAS RN>
57583343

>  <SMILES>
O=C(CS[Sn](SCC(=O)OCC(CC)CCCC)(SCC(=O)OCC(CC)CCCC)C)OCC(CC)CCCC

>  <Measured or Estimated Log10(mmol/L)>
-2.41

$$$$

CDXL12

 22 24  0  0  0  0  0  0  0  0999 V2000
   -0.2501   -2.0785    0.0000 Cl  0  0  0  0  0  0  0  2  0  0  0  0
   -0.9646   -1.6660    0.0000 C   0  0  0  0  0  0  0  2  0  0  0  0
   -1.6790   -2.0785    0.0000 C   0  0  0  0  0  0  0  2  0  0  0  0
   -2.3935   -1.6660    0.0000 C   0  0  0  0  0  0  0  2  0  0  0  0
   -3.1080   -2.0785    0.0000 Cl  0  0  0  0  0  0  0  2  0  0  0  0
   -2.3935   -0.8410    0.0000 C   0  0  0  0  0  0  0  2  0  0  0  0
   -1.6790   -0.4285    0.0000 C   0  0  0  0  0  0  0  2  0  0  0  0
   -0.9646   -0.8410    0.0000 C   0  0  0  0  0  0  0  2  0  0  0  0
   -0.2501   -0.4285    0.0000 C   0  0  0  0  0  0  0  2  0  0  0  0
   -0.9646   -0.0160    0.0000 C   0  0  0  0  0  0  0  2  0  0  0  0
   -0.9646    0.8090    0.0000 N   0  0  0  0  0  0  0  2  0  0  0  0
   -1.6320    1.2939    0.0000 N   0  0  0  0  0  0  0  2  0  0  0  0
   -1.3771    2.0785    0.0000 C   0  0  0  0  0  0  0  2  0  0  0  0
   -0.5521    2.0785    0.0000 N   0  0  0  0  0  0  0  2  0  0  0  0
   -0.2971    1.2939    0.0000 C   0  0  0  0  0  0  0  2  0  0  0  0
    0.2348   -1.0960    0.0000 O   0  0  0  0  0  0  0  2  0  0  0  0
    1.0194   -0.8410    0.0000 C   0  0  0  0  0  0  0  2  0  0  0  0
    1.6869   -1.3259    0.0000 C   0  0  0  0  0  0  0  2  0  0  0  0
    2.4406   -0.9904    0.0000 C   0  0  0  0  0  0  0  2  0  0  0  0
    3.1080   -1.4753    0.0000 C   0  0  0  0  0  0  0  2  0  0  0  0
    1.0194   -0.0160    0.0000 C   0  0  0  0  0  0  0  2  0  0  0  0
    0.2348    0.2389    0.0000 O   0  0  0  0  0  0  0  2  0  0  0  0
  1  2  1  0        0
  2  3  4  0        0
  3  4  4  0        0
  4  5  1  0        0
  4  6  4  0        0
  6  7  4  0        0
  7  8  4  0        0
  2  8  4  0        0
  8  9  1  0        0
  9 10  1  0        0
 10 11  1  0        0
 11 12  4  0        0
 12 13  4  0        0
 13 14  4  0        0
 14 15  4  0        0
 11 15  4  0        0
  9 16  1  0        0
 16 17  1  0        0
 17 18  1  0        0
 18 19  1  0        0
 19 20  1  0        0
 17 21  1  0        0
 21 22  1  0        0
  9 22  1  0        0
M  END
>  <CAS RN>
60207901

>  <SMILES>
Clc1cc(Cl)ccc1C1(Cn2ncnc2)OC(CCC)CO1

>  <Measured or Estimated Log10(mmol/L)>
-1.924184144

$$$$

CDXL12

 10  9  0  0  0  0  0  0  0  0999 V2000
   -2.1434    0.2062    0.0000 C   0  0  0  0  0  0  0  2  0  0  0  0
   -1.4289   -0.2063    0.0000 C   0  0  0  0  0  0  0  2  0  0  0  0
   -1.4289   -1.0312    0.0000 O   0  0  0  0  0  0  0  2  0  0  0  0
   -0.7145    0.2062    0.0000 C   0  0  0  0  0  0  0  2  0  0  0  0
   -0.7145    1.0312    0.0000 O   0  0  0  0  0  0  0  2  0  0  0  0
    0.0000   -0.2063    0.0000 O   0  0  0  0  0  0  0  2  0  0  0  0
    0.7145    0.2062    0.0000 C   0  0  0  0  0  0  0  2  0  0  0  0
    1.4289   -0.2063    0.0000 C   0  0  0  0  0  0  0  2  0  0  0  0
    1.4289   -1.0312    0.0000 C   0  0  0  0  0  0  0  2  0  0  0  0
    2.1434    0.2062    0.0000 C   0  0  0  0  0  0  0  2  0  0  0  0
  1  2  1  0        0
  2  3  1  0        0
  2  4  1  0        0
  4  5  2  0        0
  4  6  1  0        0
  6  7  1  0        0
  7  8  1  0        0
  8  9  1  0        0
  8 10  1  0        0
M  END
>  <CAS RN>
61597964

>  <SMILES>
CC(O)C(=O)OCC(C)C

>  <Measured or Estimated Log10(mmol/L)>
0.431691322

$$$$

CDXL12

 26 28  0  0  0  0  0  0  0  0999 V2000
   -1.3737   -1.3332    0.0000 O   0  0  0  0  0  0  0  2  0  0  0  0
   -1.3737   -0.5082    0.0000 C   0  0  0  0  0  0  0  2  0  0  0  0
   -0.6592   -0.0957    0.0000 O   0  0  0  0  0  0  0  2  0  0  0  0
    0.0553   -0.5082    0.0000 C   0  0  0  0  0  0  0  2  0  0  0  0
    0.7697   -0.0957    0.0000 C   0  0  0  0  0  0  0  2  0  0  0  0
    0.7697    0.7293    0.0000 C   0  0  0  0  0  0  0  2  0  0  0  0
    1.4842    1.1418    0.0000 C   0  0  0  0  0  0  0  2  0  0  0  0
    2.1987    0.7293    0.0000 C   0  0  0  0  0  0  0  2  0  0  0  0
    2.1987   -0.0957    0.0000 C   0  0  0  0  0  0  0  2  0  0  0  0
    2.9131   -0.5082    0.0000 O   0  0  0  0  0  0  0  2  0  0  0  0
    3.6276   -0.0957    0.0000 C   0  0  0  0  0  0  0  2  0  0  0  0
    4.3421   -0.5082    0.0000 C   0  0  0  0  0  0  0  2  0  0  0  0
    5.0566   -0.0957    0.0000 C   0  0  0  0  0  0  0  2  0  0  0  0
    5.0566    0.7293    0.0000 C   0  0  0  0  0  0  0  2  0  0  0  0
    4.3421    1.1418    0.0000 C   0  0  0  0  0  0  0  2  0  0  0  0
    3.6276    0.7293    0.0000 C   0  0  0  0  0  0  0  2  0  0  0  0
    1.4842   -0.5082    0.0000 C   0  0  0  0  0  0  0  2  0  0  0  0
   -2.0881   -0.0957    0.0000 C   0  0  0  0  0  0  0  2  0  0  0  0
   -2.5006    0.6188    0.0000 C   0  0  0  0  0  0  0  2  0  0  0  0
   -2.0881    1.3332    0.0000 C   0  0  0  0  0  0  0  2  0  0  0  0
   -2.9131    1.3332    0.0000 C   0  0  0  0  0  0  0  2  0  0  0  0
   -2.9131   -0.0957    0.0000 C   0  0  0  0  0  0  0  2  0  0  0  0
   -3.6276   -0.5082    0.0000 C   0  0  0  0  0  0  0  2  0  0  0  0
   -4.3421   -0.0957    0.0000 C   0  0  0  0  0  0  0  2  0  0  0  0
   -4.3421    0.7293    0.0000 Cl  0  0  0  0  0  0  0  2  0  0  0  0
   -5.0566   -0.5082    0.0000 Cl  0  0  0  0  0  0  0  2  0  0  0  0
  1  2  2  0        0
  2  3  1  0        0
  3  4  1  0        0
  4  5  1  0        0
  5  6  4  0        0
  6  7  4  0        0
  7  8  4  0        0
  8  9  4  0        0
  9 10  1  0        0
 10 11  1  0        0
 11 12  4  0        0
 12 13  4  0        0
 13 14  4  0        0
 14 15  4  0        0
 15 16  4  0        0
 11 16  4  0        0
  9 17  4  0        0
  5 17  4  0        0
  2 18  1  0        0
 18 19  1  0        0
 19 20  1  0        0
 19 21  1  0        0
 19 22  1  0        0
 18 22  1  0        0
 22 23  1  0        0
 23 24  2  0        0
 24 25  1  0        0
 24 26  1  0        0
M  END
>  <CAS RN>
61949766

>  <SMILES>
O=C(OCc1cccc(Oc2ccccc2)c1)C1C(C)(C)C1C=C(Cl)Cl

>  <Measured or Estimated Log10(mmol/L)>
-5.495593166

$$$$

CDXL12

 11 11  0  0  0  0  0  0  0  0999 V2000
    0.7145    1.2375    0.0000 Cl  0  0  0  0  0  0  0  2  0  0  0  0
    0.7145    0.4125    0.0000 C   0  0  0  0  0  0  0  2  0  0  0  0
    1.4289   -0.0000    0.0000 C   0  0  0  0  0  0  0  2  0  0  0  0
    1.4289   -0.8250    0.0000 C   0  0  0  0  0  0  0  2  0  0  0  0
    0.7145   -1.2375    0.0000 C   0  0  0  0  0  0  0  2  0  0  0  0
    0.0000   -0.8250    0.0000 C   0  0  0  0  0  0  0  2  0  0  0  0
   -0.7145   -1.2375    0.0000 F   0  0  0  0  0  0  0  2  0  0  0  0
    0.0000   -0.0000    0.0000 C   0  0  0  0  0  0  0  2  0  0  0  0
   -0.7145    0.4125    0.0000 C   0  0  0  0  0  0  0  2  0  0  0  0
   -0.7145    1.2375    0.0000 Cl  0  0  0  0  0  0  0  2  0  0  0  0
   -1.4289   -0.0000    0.0000 Cl  0  0  0  0  0  0  0  2  0  0  0  0
  1  2  1  0        0
  2  3  4  0        0
  3  4  4  0        0
  4  5  4  0        0
  5  6  4  0        0
  6  7  1  0        0
  6  8  4  0        0
  2  8  4  0        0
  8  9  1  0        0
  9 10  1  0        0
  9 11  1  0        0
M  END
>  <CAS RN>
62476624

>  <SMILES>
Clc1cccc(F)c1C(Cl)Cl

>  <Measured or Estimated Log10(mmol/L)>
-2.347057467

$$$$

CDXL12

  9  8  0  0  0  0  0  0  0  0999 V2000
   -1.7862    0.2062    0.0000 C   0  0  0  0  0  0  0  2  0  0  0  0
   -1.0717   -0.2062    0.0000 C   0  0  0  0  0  0  0  2  0  0  0  0
   -1.0717   -1.0313    0.0000 O   0  0  0  0  0  0  0  2  0  0  0  0
   -0.3572    0.2062    0.0000 C   0  0  0  0  0  0  0  2  0  0  0  0
   -0.3572    1.0312    0.0000 O   0  0  0  0  0  0  0  2  0  0  0  0
    0.3572   -0.2062    0.0000 O   0  0  0  0  0  0  0  2  0  0  0  0
    1.0717    0.2062    0.0000 C   0  0  0  0  0  0  0  2  0  0  0  0
    1.7862   -0.2062    0.0000 C   0  0  0  0  0  0  0  2  0  0  0  0
    1.0717    1.0313    0.0000 C   0  0  0  0  0  0  0  2  0  0  0  0
  1  2  1  0        0
  2  3  1  0        0
  2  4  1  0        0
  4  5  2  0        0
  4  6  1  0        0
  6  7  1  0        0
  7  8  1  0        0
  7  9  1  0        0
M  END
>  <CAS RN>
63697007

>  <SMILES>
CC(O)C(=O)OC(C)C

>  <Measured or Estimated Log10(mmol/L)>
0.783077634

$$$$

CDXL12

 16 16  0  0  0  0  0  0  0  0999 V2000
    3.9210   -0.6666    0.0000 C   0  0  0  0  0  0  0  2  0  0  0  0
    3.2065   -1.0791    0.0000 C   0  0  0  0  0  0  0  2  0  0  0  0
    2.4920   -0.6666    0.0000 C   0  0  0  0  0  0  0  2  0  0  0  0
    1.7776   -1.0791    0.0000 C   0  0  0  0  0  0  0  2  0  0  0  0
    1.0631   -0.6666    0.0000 C   0  0  0  0  0  0  0  2  0  0  0  0
    0.3486   -1.0791    0.0000 C   0  0  0  0  0  0  0  2  0  0  0  0
   -0.3658   -0.6666    0.0000 C   0  0  0  0  0  0  0  2  0  0  0  0
   -1.0803   -1.0791    0.0000 C   0  0  0  0  0  0  0  2  0  0  0  0
   -1.7948   -0.6666    0.0000 N   0  0  0  0  0  0  0  2  0  0  0  0
   -1.8810    0.1539    0.0000 C   0  0  0  0  0  0  0  2  0  0  0  0
   -1.2679    0.7059    0.0000 O   0  0  0  0  0  0  0  2  0  0  0  0
   -2.6880    0.3254    0.0000 C   0  0  0  0  0  0  0  2  0  0  0  0
   -3.0236    1.0791    0.0000 Cl  0  0  0  0  0  0  0  2  0  0  0  0
   -3.1005   -0.3891    0.0000 C   0  0  0  0  0  0  0  2  0  0  0  0
   -3.9210   -0.4753    0.0000 Cl  0  0  0  0  0  0  0  2  0  0  0  0
   -2.5485   -1.0021    0.0000 S   0  0  0  0  0  0  0  2  0  0  0  0
  1  2  1  0        0
  2  3  1  0        0
  3  4  1  0        0
  4  5  1  0        0
  5  6  1  0        0
  6  7  1  0        0
  7  8  1  0        0
  8  9  1  0        0
  9 10  1  0        0
 10 11  2  0        0
 10 12  1  0        0
 12 13  1  0        0
 12 14  2  0        0
 14 15  1  0        0
 14 16  1  0        0
  9 16  1  0        0
M  END
>  <CAS RN>
64359815

>  <SMILES>
CCCCCCCCN1C(=O)/C(/Cl)=C(/Cl)\S1

>  <Measured or Estimated Log10(mmol/L)>
-4.734604439

$$$$

CDXL12

 24 26  0  0  0  0  0  0  0  0999 V2000
    3.9296    0.8250    0.0000 C   0  0  0  0  0  0  0  2  0  0  0  0
    3.2151    1.2375    0.0000 C   0  0  0  0  0  0  0  2  0  0  0  0
    2.5006    0.8250    0.0000 C   0  0  0  0  0  0  0  2  0  0  0  0
    2.5006    0.0000    0.0000 C   0  0  0  0  0  0  0  2  0  0  0  0
    3.2151   -0.4125    0.0000 N   0  0  0  0  0  0  0  2  0  0  0  0
    3.9296    0.0000    0.0000 C   0  0  0  0  0  0  0  2  0  0  0  0
    1.7862   -0.4125    0.0000 C   0  0  0  0  0  0  0  2  0  0  0  0
    1.0717    0.0000    0.0000 C   0  0  0  0  0  0  0  2  0  0  0  0
    1.0717    0.8250    0.0000 O   0  0  0  0  0  0  0  2  0  0  0  0
    0.3572   -0.4125    0.0000 C   0  0  0  0  0  0  0  2  0  0  0  0
   -0.3572    0.0000    0.0000 N   0  0  0  0  0  0  0  2  0  0  0  0
   -0.3572    0.8250    0.0000 C   0  0  0  0  0  0  0  2  0  0  0  0
   -1.0717    1.2375    0.0000 N   0  0  0  0  0  0  0  2  0  0  0  0
   -1.7862    0.8250    0.0000 C   0  0  0  0  0  0  0  2  0  0  0  0
   -2.5006    1.2375    0.0000 C   0  0  0  0  0  0  0  2  0  0  0  0
   -3.2151    0.8250    0.0000 C   0  0  0  0  0  0  0  2  0  0  0  0
   -3.2151   -0.0000    0.0000 C   0  0  0  0  0  0  0  2  0  0  0  0
   -2.5006   -0.4125    0.0000 C   0  0  0  0  0  0  0  2  0  0  0  0
   -1.7862   -0.0000    0.0000 C   0  0  0  0  0  0  0  2  0  0  0  0
   -1.0717   -0.4125    0.0000 C   0  0  0  0  0  0  0  2  0  0  0  0
   -1.0717   -1.2375    0.0000 O   0  0  0  0  0  0  0  2  0  0  0  0
   -3.9296   -0.4125    0.0000 Cl  0  0  0  0  0  0  0  2  0  0  0  0
   -3.9296    1.2375    0.0000 Br  0  0  0  0  0  0  0  2  0  0  0  0
    1.7862    1.2375    0.0000 O   0  0  0  0  0  0  0  2  0  0  0  0
  1  2  1  0        0
  2  3  1  0        0
  3  4  1  0        0
  4  5  1  0        0
  5  6  1  0        0
  1  6  1  0        0
  4  7  1  0        0
  7  8  1  0        0
  8  9  2  0        0
  8 10  1  0        0
 10 11  1  0        0
 11 12  1  0        0
 12 13  2  0        0
 13 14  1  0        0
 14 15  4  0        0
 15 16  4  0        0
 16 17  4  0        0
 17 18  4  0        0
 18 19  4  0        0
 14 19  4  0        0
 19 20  1  0        0
 11 20  1  0        0
 20 21  2  0        0
 17 22  1  0        0
 16 23  1  0        0
  3 24  1  0        0
M  END
>  <CAS RN>
64924670

>  <SMILES>
C1CC(C(NC1)CC(=O)CN1\C=N/c2cc(c(cc2C1=O)Cl)Br)O

>  <Measured or Estimated Log10(mmol/L)>
-4.362451058

$$$$

CDXL12

 24 24  0  0  0  0  0  0  0  0999 V2000
    2.5006   -0.6187    0.0000 C   0  0  0  0  0  0  0  2  0  0  0  0
    2.5006    0.2063    0.0000 C   0  0  0  0  0  0  0  2  0  0  0  0
    3.2151    0.6188    0.0000 C   0  0  0  0  0  0  0  2  0  0  0  0
    3.2151    1.4438    0.0000 S   0  0  0  0  0  0  0  2  0  0  0  0
    4.0401    1.4438    0.0000 O   0  0  0  0  0  0  0  2  0  0  0  0
    2.3901    1.4438    0.0000 O   0  0  0  0  0  0  0  2  0  0  0  0
    3.2151    2.2687    0.0000 O   0  0  0  0  0  0  0  2  0  0  0  0
    3.9296    0.2063    0.0000 C   0  0  0  0  0  0  0  2  0  0  0  0
    3.9296   -0.6187    0.0000 C   0  0  0  0  0  0  0  2  0  0  0  0
    3.2151   -1.0312    0.0000 C   0  0  0  0  0  0  0  2  0  0  0  0
    3.2151   -1.8562    0.0000 C   0  0  0  0  0  0  0  2  0  0  0  0
    3.9296   -2.2687    0.0000 C   0  0  0  0  0  0  0  2  0  0  0  0
    4.6441   -1.8562    0.0000 C   0  0  0  0  0  0  0  2  0  0  0  0
    2.5006   -2.2687    0.0000 C   0  0  0  0  0  0  0  2  0  0  0  0
    1.7862   -1.8562    0.0000 C   0  0  0  0  0  0  0  2  0  0  0  0
    1.0717   -2.2687    0.0000 C   0  0  0  0  0  0  0  2  0  0  0  0
    0.3572   -1.8562    0.0000 C   0  0  0  0  0  0  0  2  0  0  0  0
   -0.3572   -2.2687    0.0000 C   0  0  0  0  0  0  0  2  0  0  0  0
   -1.0717   -1.8562    0.0000 C   0  0  0  0  0  0  0  2  0  0  0  0
   -1.7862   -2.2687    0.0000 C   0  0  0  0  0  0  0  2  0  0  0  0
   -2.5006   -1.8562    0.0000 C   0  0  0  0  0  0  0  2  0  0  0  0
   -3.2151   -2.2687    0.0000 C   0  0  0  0  0  0  0  2  0  0  0  0
   -3.9296   -1.8562    0.0000 C   0  0  0  0  0  0  0  2  0  0  0  0
   -4.6441   -2.2687    0.0000 C   0  0  0  0  0  0  0  2  0  0  0  0
  1  2  4  0        0
  2  3  4  0        0
  3  4  1  0        0
  4  5  2  0        0
  4  6  2  0        0
  4  7  1  0        0
  3  8  4  0        0
  8  9  4  0        0
  9 10  4  0        0
  1 10  4  0        0
 10 11  1  0        0
 11 12  1  0        0
 12 13  1  0        0
 11 14  1  0        0
 14 15  1  0        0
 15 16  1  0        0
 16 17  1  0        0
 17 18  1  0        0
 18 19  1  0        0
 19 20  1  0        0
 20 21  1  0        0
 21 22  1  0        0
 22 23  1  0        0
 23 24  1  0        0
M  END
>  <CAS RN>
65186018

>  <SMILES>
c1cc(S(=O)(=O)O)ccc1C(CC)CCCCCCCCCCC

>  <Measured or Estimated Log10(mmol/L)>
-2.409568411

$$$$

CDXL12

 63 69  0  0  0  0  0  0  0  0999 V2000
   -3.9296    2.4750    0.0000 O   0  0  0  0  0  0  0  2  0  0  0  0
   -4.6441    2.8875    0.0000 C   0  0  0  0  0  0  0  2  0  0  0  0
   -4.6441    3.7125    0.0000 C   0  0  0  0  0  0  0  2  0  0  0  0
   -5.3585    2.4750    0.0000 C   0  0  0  0  0  0  0  2  0  0  0  0
   -6.0730    2.8875    0.0000 O   0  0  0  0  0  0  0  2  0  0  0  0
   -5.3585    1.6500    0.0000 C   0  0  0  0  0  0  0  2  0  0  0  0
   -6.0730    1.2375    0.0000 O   0  0  0  0  0  0  0  2  0  0  0  0
   -6.7875    1.6500    0.0000 C   0  0  0  0  0  0  0  2  0  0  0  0
   -4.6441    1.2375    0.0000 C   0  0  0  0  0  0  0  2  0  0  0  0
   -3.9296    1.6500    0.0000 C   0  0  0  0  0  0  0  2  0  0  0  0
   -3.2151    1.2375    0.0000 O   0  0  0  0  0  0  0  2  0  0  0  0
   -2.5006    1.6500    0.0000 C   0  0  0  0  0  0  0  2  0  0  0  0
   -2.5006    2.4750    0.0000 C   0  0  0  0  0  0  0  2  0  0  0  0
   -3.2151    2.8875    0.0000 O   0  0  0  0  0  0  0  2  0  0  0  0
   -3.2151    3.7125    0.0000 C   0  0  0  0  0  0  0  2  0  0  0  0
   -1.7862    2.8875    0.0000 C   0  0  0  0  0  0  0  2  0  0  0  0
   -1.0717    2.4750    0.0000 C   0  0  0  0  0  0  0  2  0  0  0  0
   -1.0717    3.3000    0.0000 H   0  0  0  0  0  0  0  2  0  0  0  0
   -1.0717    1.6500    0.0000 O   0  0  0  0  0  0  0  2  0  0  0  0
   -1.7862    1.2375    0.0000 C   0  0  0  0  0  0  0  2  0  0  0  0
   -1.7862    0.4125    0.0000 C   0  0  0  0  0  0  0  2  0  0  0  0
   -0.3572    2.8875    0.0000 O   0  0  0  0  0  0  0  2  0  0  0  0
    0.3572    2.4750    0.0000 C   0  0  0  0  0  0  0  2  0  0  0  0
    0.3572    1.6500    0.0000 C   0  0  0  0  0  0  0  2  0  0  0  0
   -0.3572    1.2375    0.0000 C   0  0  0  0  0  0  0  2  0  0  0  0
    1.0717    1.2375    0.0000 C   0  0  0  0  0  0  0  2  0  0  0  0
    1.0717    0.4125    0.0000 C   0  0  0  0  0  0  0  2  0  0  0  0
    1.7862   -0.0000    0.0000 C   0  0  0  0  0  0  0  2  0  0  0  0
    1.7862   -0.8250    0.0000 O   0  0  0  0  0  0  0  2  0  0  0  0
    2.5006   -1.2375    0.0000 C   0  0  0  0  0  0  0  2  0  0  0  0
    3.2151   -1.6500    0.0000 C   0  0  0  0  0  0  0  2  0  0  0  0
    3.2151   -2.4750    0.0000 C   0  0  0  0  0  0  0  2  0  0  0  0
    2.5006   -2.8875    0.0000 C   0  0  0  0  0  0  0  2  0  0  0  0
    2.5006   -3.7125    0.0000 C   0  0  0  0  0  0  0  2  0  0  0  0
    1.7862   -2.4750    0.0000 C   0  0  0  0  0  0  0  2  0  0  0  0
    1.0717   -2.8875    0.0000 C   0  0  0  0  0  0  0  2  0  0  0  0
    1.0717   -3.7125    0.0000 C   0  0  0  0  0  0  0  2  0  0  0  0
    0.3572   -2.4750    0.0000 C   0  0  0  0  0  0  0  2  0  0  0  0
   -0.3572   -2.8875    0.0000 C   0  0  0  0  0  0  0  2  0  0  0  0
    1.7862   -1.6500    0.0000 O   0  0  0  0  0  0  0  2  0  0  0  0
    3.2151   -0.8250    0.0000 C   0  0  0  0  0  0  0  2  0  0  0  0
    3.2151   -0.0000    0.0000 C   0  0  0  0  0  0  0  2  0  0  0  0
    2.5006    0.4125    0.0000 C   0  0  0  0  0  0  0  2  0  0  0  0
    3.9296    0.4125    0.0000 O   0  0  0  0  0  0  0  2  0  0  0  0
    3.9296    1.2375    0.0000 C   0  0  0  0  0  0  0  2  0  0  0  0
    3.2151    1.6500    0.0000 O   0  0  0  0  0  0  0  2  0  0  0  0
    4.6441    1.6500    0.0000 C   0  0  0  0  0  0  0  2  0  0  0  0
    5.3585    1.2375    0.0000 C   0  0  0  0  0  0  0  2  0  0  0  0
    6.0730    1.6500    0.0000 C   0  0  0  0  0  0  0  2  0  0  0  0
    6.7875    1.2375    0.0000 C   0  0  0  0  0  0  0  2  0  0  0  0
    6.0730    2.4750    0.0000 C   0  0  0  0  0  0  0  2  0  0  0  0
    6.7875    2.8875    0.0000 O   0  0  0  0  0  0  0  2  0  0  0  0
    5.3585    2.8875    0.0000 C   0  0  0  0  0  0  0  2  0  0  0  0
    5.0566    3.6552    0.0000 O   0  0  0  0  0  0  0  2  0  0  0  0
    4.2316    3.6552    0.0000 C   0  0  0  0  0  0  0  2  0  0  0  0
    3.9296    2.8875    0.0000 C   0  0  0  0  0  0  0  2  0  0  0  0
    4.6441    2.4750    0.0000 C   0  0  0  0  0  0  0  2  0  0  0  0
    4.6441    3.3000    0.0000 O   0  0  0  0  0  0  0  2  0  0  0  0
    3.2151    2.4750    0.0000 C   0  0  0  0  0  0  0  2  0  0  0  0
    2.5006    2.8875    0.0000 C   0  0  0  0  0  0  0  2  0  0  0  0
    1.7862    2.4750    0.0000 C   0  0  0  0  0  0  0  2  0  0  0  0
    1.0717    2.8875    0.0000 C   0  0  0  0  0  0  0  2  0  0  0  0
    1.0717    3.7125    0.0000 C   0  0  0  0  0  0  0  2  0  0  0  0
  1  2  1  0        0
  2  3  1  6        0
  2  4  1  0        0
  4  5  1  1        0
  4  6  1  0        0
  6  7  1  6        0
  7  8  1  0        0
  6  9  1  0        0
  9 10  1  0        0
  1 10  1  0        0
 10 11  1  1        0
 12 11  1  6        0
 12 13  1  0        0
 13 14  1  1        0
 14 15  1  0        0
 13 16  1  0        0
 16 17  1  0        0
 17 18  1  1        0
 17 19  1  0        0
 19 20  1  0        0
 12 20  1  0        0
 20 21  1  1        0
 17 22  1  0        0
 23 22  1  1        0
 23 24  1  0        0
 24 25  1  0        0
 24 26  2  0        0
 26 27  1  0        0
 27 28  1  0        0
 28 29  1  6        0
 29 30  1  0        0
 30 31  1  6        0
 31 32  2  0        0
 32 33  1  0        0
 33 34  1  6        0
 33 35  1  0        0
 35 36  1  0        0
 36 37  1  0        0
 36 38  1  0        0
 38 39  1  0        0
 35 40  1  1        0
 30 40  1  1        0
 30 41  1  0        0
 41 42  1  0        0
 42 43  1  0        0
 28 43  1  0        0
 42 44  1  6        0
 44 45  1  0        0
 45 46  2  0        0
 45 47  1  0        0
 47 48  1  6        0
 48 49  2  0        0
 49 50  1  0        0
 49 51  1  0        0
 51 52  1  6        0
 51 53  1  0        0
 53 54  1  6        0
 54 55  1  0        0
 55 56  1  0        0
 56 57  1  0        0
 47 57  1  0        0
 53 57  1  0        0
 57 58  1  0        0
 56 59  2  0        0
 59 60  1  0        0
 60 61  2  0        0
 61 62  1  0        0
 23 62  1  0        0
 62 63  1  0        0
M  END
>  <CAS RN>
65195553

>  <SMILES>
O1[C@@H](C)[C@H](O)[C@@H](OC)C[C@@H]1O[C@@H]1[C@@H](OC)C[C@@]([H])(O[C@H]1C)O[C@@H]1/C(/C)=C/C[C@H]2O[C@@]3(\C=C/[C@H](C)[C@@H](C(C)CC)O3)C[C@H](C2)OC(=O)[C@H]2/C=C(/C)\[C@@H](O)[C@H]3OCC(C23O)=CC=CC1
C

>  <Measured or Estimated Log10(mmol/L)>
-6.409580087

$$$$

CDXL12

 30 32  0  0  0  0  0  0  0  0999 V2000
   -2.1434    2.2687    0.0000 C   0  0  0  0  0  0  0  2  0  0  0  0
   -1.4289    1.8563    0.0000 C   0  0  0  0  0  0  0  2  0  0  0  0
   -1.4289    1.0313    0.0000 C   0  0  0  0  0  0  0  2  0  0  0  0
   -2.1434    0.6188    0.0000 C   0  0  0  0  0  0  0  2  0  0  0  0
   -2.8579    1.0313    0.0000 C   0  0  0  0  0  0  0  2  0  0  0  0
   -2.8579    1.8563    0.0000 C   0  0  0  0  0  0  0  2  0  0  0  0
   -2.1434   -0.2062    0.0000 C   0  0  0  0  0  0  0  2  0  0  0  0
   -2.8579   -0.6187    0.0000 C   0  0  0  0  0  0  0  2  0  0  0  0
   -2.8579   -1.4437    0.0000 C   0  0  0  0  0  0  0  2  0  0  0  0
   -3.5724   -0.2062    0.0000 C   0  0  0  0  0  0  0  2  0  0  0  0
   -1.4289   -0.6187    0.0000 C   0  0  0  0  0  0  0  2  0  0  0  0
   -1.4289   -1.4437    0.0000 O   0  0  0  0  0  0  0  2  0  0  0  0
   -0.7145   -0.2062    0.0000 O   0  0  0  0  0  0  0  2  0  0  0  0
    0.0000   -0.6187    0.0000 C   0  0  0  0  0  0  0  2  0  0  0  0
    0.7145   -0.2062    0.0000 C   0  0  0  0  0  0  0  2  0  0  0  0
    1.4289    0.2062    0.0000 N   0  0  0  0  0  0  0  2  0  0  0  0
    0.0000   -1.4437    0.0000 C   0  0  0  0  0  0  0  2  0  0  0  0
    0.7145   -1.8562    0.0000 C   0  0  0  0  0  0  0  2  0  0  0  0
    0.7145   -2.6812    0.0000 C   0  0  0  0  0  0  0  2  0  0  0  0
    0.0000   -3.0938    0.0000 C   0  0  0  0  0  0  0  2  0  0  0  0
   -0.7145   -2.6812    0.0000 C   0  0  0  0  0  0  0  2  0  0  0  0
   -0.7145   -1.8563    0.0000 C   0  0  0  0  0  0  0  2  0  0  0  0
    1.4289   -3.0937    0.0000 O   0  0  0  0  0  0  0  2  0  0  0  0
    2.1434   -2.6812    0.0000 C   0  0  0  0  0  0  0  2  0  0  0  0
    2.1434   -1.8563    0.0000 C   0  0  0  0  0  0  0  2  0  0  0  0
    2.8579   -1.4437    0.0000 C   0  0  0  0  0  0  0  2  0  0  0  0
    3.5724   -1.8562    0.0000 C   0  0  0  0  0  0  0  2  0  0  0  0
    3.5724   -2.6812    0.0000 C   0  0  0  0  0  0  0  2  0  0  0  0
    2.8579   -3.0937    0.0000 C   0  0  0  0  0  0  0  2  0  0  0  0
   -2.1434    3.0938    0.0000 Cl  0  0  0  0  0  0  0  2  0  0  0  0
  1  2  4  0        0
  2  3  4  0        0
  3  4  4  0        0
  4  5  4  0        0
  5  6  4  0        0
  1  6  4  0        0
  7  4  1  1        0
  7  8  1  0        0
  8  9  1  0        0
  8 10  1  0        0
  7 11  1  0        0
 11 12  2  0        0
 11 13  1  0        0
 13 14  1  0        0
 14 15  1  0        0
 15 16  3  0        0
 14 17  1  0        0
 17 18  4  0        0
 18 19  4  0        0
 19 20  4  0        0
 20 21  4  0        0
 21 22  4  0        0
 17 22  4  0        0
 19 23  1  0        0
 23 24  1  0        0
 24 25  4  0        0
 25 26  4  0        0
 26 27  4  0        0
 27 28  4  0        0
 28 29  4  0        0
 24 29  4  0        0
  1 30  1  0        0
M  END
>  <CAS RN>
66230044

>  <SMILES>
c1(ccc(cc1)[C@H](C(C)C)C(=O)OC(C#N)c1cc(ccc1)Oc1ccccc1)Cl

>  <Measured or Estimated Log10(mmol/L)>
-6.391480085

$$$$

CDXL12

 32 34  0  0  0  0  0  0  0  0999 V2000
   -2.8579    0.0000    0.0000 C   0  0  0  0  0  0  0  2  0  0  0  0
   -2.8579    0.8250    0.0000 Br  0  0  0  0  0  0  0  2  0  0  0  0
   -3.5724   -0.4125    0.0000 C   0  0  0  0  0  0  0  2  0  0  0  0
   -4.2868   -0.8250    0.0000 Br  0  0  0  0  0  0  0  2  0  0  0  0
   -3.5724   -1.2375    0.0000 Br  0  0  0  0  0  0  0  2  0  0  0  0
   -4.2868    0.0000    0.0000 Br  0  0  0  0  0  0  0  2  0  0  0  0
   -2.1434   -0.4125    0.0000 C   0  0  0  0  0  0  0  2  0  0  0  0
   -2.1434    0.4125    0.0000 H   0  0  0  0  0  0  0  2  0  0  0  0
   -2.1434   -1.2375    0.0000 C   0  0  0  0  0  0  0  2  0  0  0  0
   -2.1434   -2.0625    0.0000 C   0  0  0  0  0  0  0  2  0  0  0  0
   -2.8579   -1.6500    0.0000 C   0  0  0  0  0  0  0  2  0  0  0  0
   -1.4289   -0.8250    0.0000 C   0  0  0  0  0  0  0  2  0  0  0  0
   -0.7145   -1.2375    0.0000 H   0  0  0  0  0  0  0  2  0  0  0  0
   -0.7145   -0.4125    0.0000 C   0  0  0  0  0  0  0  2  0  0  0  0
   -0.7145    0.4125    0.0000 O   0  0  0  0  0  0  0  2  0  0  0  0
    0.0000   -0.8250    0.0000 O   0  0  0  0  0  0  0  2  0  0  0  0
    0.7145   -0.4125    0.0000 C   0  0  0  0  0  0  0  2  0  0  0  0
    1.4289   -0.8250    0.0000 C   0  0  0  0  0  0  0  2  0  0  0  0
    2.1434   -1.2375    0.0000 N   0  0  0  0  0  0  0  2  0  0  0  0
    0.7145    0.4125    0.0000 C   0  0  0  0  0  0  0  2  0  0  0  0
    0.0000    0.8250    0.0000 C   0  0  0  0  0  0  0  2  0  0  0  0
    0.0000    1.6500    0.0000 C   0  0  0  0  0  0  0  2  0  0  0  0
    0.7145    2.0625    0.0000 C   0  0  0  0  0  0  0  2  0  0  0  0
    1.4289    1.6500    0.0000 C   0  0  0  0  0  0  0  2  0  0  0  0
    2.1434    2.0625    0.0000 O   0  0  0  0  0  0  0  2  0  0  0  0
    2.8579    1.6500    0.0000 C   0  0  0  0  0  0  0  2  0  0  0  0
    3.5724    2.0625    0.0000 C   0  0  0  0  0  0  0  2  0  0  0  0
    4.2868    1.6500    0.0000 C   0  0  0  0  0  0  0  2  0  0  0  0
    4.2868    0.8250    0.0000 C   0  0  0  0  0  0  0  2  0  0  0  0
    3.5724    0.4125    0.0000 C   0  0  0  0  0  0  0  2  0  0  0  0
    2.8579    0.8250    0.0000 C   0  0  0  0  0  0  0  2  0  0  0  0
    1.4289    0.8250    0.0000 C   0  0  0  0  0  0  0  2  0  0  0  0
  1  2  1  0        0
  1  3  1  0        0
  3  4  1  0        0
  3  5  1  0        0
  3  6  1  0        0
  1  7  1  0        0
  7  8  1  6        0
  7  9  1  0        0
  9 10  1  0        0
  9 11  1  0        0
  9 12  1  0        0
  7 12  1  0        0
 12 13  1  6        0
 12 14  1  1        0
 14 15  2  0        0
 14 16  1  0        0
 16 17  1  0        0
 17 18  1  0        0
 18 19  3  0        0
 17 20  1  0        0
 20 21  4  0        0
 21 22  4  0        0
 22 23  4  0        0
 23 24  4  0        0
 24 25  1  0        0
 25 26  1  0        0
 26 27  4  0        0
 27 28  4  0        0
 28 29  4  0        0
 29 30  4  0        0
 30 31  4  0        0
 26 31  4  0        0
 24 32  4  0        0
 20 32  4  0        0
M  END
>  <CAS RN>
66841256

>  <SMILES>
C(Br)(C(Br)(Br)Br)[C@]1([H])C(C)(C)[C@]1([H])C(=O)OC(C#N)c1cccc(Oc2ccccc2)c1

>  <Measured or Estimated Log10(mmol/L)>
-6.476982258

$$$$

CDXL12

 35 37  0  0  0  0  0  0  0  0999 V2000
    2.4454   -2.6812    0.0000 N   0  0  0  0  0  0  0  2  0  0  0  0
    3.1599   -3.0937    0.0000 C   0  0  0  0  0  0  0  2  0  0  0  0
    3.8743   -2.6812    0.0000 C   0  0  0  0  0  0  0  2  0  0  0  0
    4.2868   -3.3957    0.0000 C   0  0  0  0  0  0  0  2  0  0  0  0
    4.6993   -2.6812    0.0000 C   0  0  0  0  0  0  0  2  0  0  0  0
    3.8743   -1.8562    0.0000 C   0  0  0  0  0  0  0  2  0  0  0  0
    3.1599   -1.4437    0.0000 N   0  0  0  0  0  0  0  2  0  0  0  0
    2.4454   -1.8562    0.0000 C   0  0  0  0  0  0  0  2  0  0  0  0
    1.7309   -1.4437    0.0000 N   0  0  0  0  0  0  0  2  0  0  0  0
    1.0164   -1.8562    0.0000 N   0  0  0  0  0  0  0  2  0  0  0  0
    0.3020   -1.4437    0.0000 C   0  0  0  0  0  0  0  2  0  0  0  0
   -0.4125   -1.8562    0.0000 C   0  0  0  0  0  0  0  2  0  0  0  0
   -1.1270   -1.4437    0.0000 C   0  0  0  0  0  0  0  2  0  0  0  0
   -1.8414   -1.8562    0.0000 C   0  0  0  0  0  0  0  2  0  0  0  0
   -2.5559   -1.4437    0.0000 C   0  0  0  0  0  0  0  2  0  0  0  0
   -3.2704   -1.8563    0.0000 C   0  0  0  0  0  0  0  2  0  0  0  0
   -3.2704   -2.6812    0.0000 C   0  0  0  0  0  0  0  2  0  0  0  0
   -3.9849   -3.0938    0.0000 C   0  0  0  0  0  0  0  2  0  0  0  0
   -3.9849   -3.9188    0.0000 F   0  0  0  0  0  0  0  2  0  0  0  0
   -4.6993   -3.5063    0.0000 F   0  0  0  0  0  0  0  2  0  0  0  0
   -4.6993   -2.6812    0.0000 F   0  0  0  0  0  0  0  2  0  0  0  0
   -2.5559   -3.0937    0.0000 C   0  0  0  0  0  0  0  2  0  0  0  0
   -1.8414   -2.6812    0.0000 C   0  0  0  0  0  0  0  2  0  0  0  0
    0.3020   -0.6187    0.0000 C   0  0  0  0  0  0  0  2  0  0  0  0
    1.0164   -0.2062    0.0000 C   0  0  0  0  0  0  0  2  0  0  0  0
    1.0164    0.6188    0.0000 C   0  0  0  0  0  0  0  2  0  0  0  0
    1.7309    1.0313    0.0000 C   0  0  0  0  0  0  0  2  0  0  0  0
    1.7309    1.8563    0.0000 C   0  0  0  0  0  0  0  2  0  0  0  0
    1.0164    2.2687    0.0000 C   0  0  0  0  0  0  0  2  0  0  0  0
    1.0164    3.0938    0.0000 C   0  0  0  0  0  0  0  2  0  0  0  0
    0.3020    3.5063    0.0000 F   0  0  0  0  0  0  0  2  0  0  0  0
    1.0164    3.9188    0.0000 F   0  0  0  0  0  0  0  2  0  0  0  0
    1.7309    3.5063    0.0000 F   0  0  0  0  0  0  0  2  0  0  0  0
    0.3020    1.8563    0.0000 C   0  0  0  0  0  0  0  2  0  0  0  0
    0.3020    1.0313    0.0000 C   0  0  0  0  0  0  0  2  0  0  0  0
  1  2  1  0        0
  2  3  1  0        0
  3  4  1  0        0
  3  5  1  0        0
  3  6  1  0        0
  6  7  1  0        0
  7  8  1  0        0
  1  8  1  0        0
  8  9  2  0        0
  9 10  1  0        0
 10 11  2  0        0
 11 12  1  0        0
 12 13  2  0        0
 13 14  1  0        0
 14 15  4  0        0
 15 16  4  0        0
 16 17  4  0        0
 17 18  1  0        0
 18 19  1  0        0
 18 20  1  0        0
 18 21  1  0        0
 17 22  4  0        0
 22 23  4  0        0
 14 23  4  0        0
 11 24  1  0        0
 24 25  2  0        0
 25 26  1  0        0
 26 27  4  0        0
 27 28  4  0        0
 28 29  4  0        0
 29 30  1  0        0
 30 31  1  0        0
 30 32  1  0        0
 30 33  1  0        0
 29 34  4  0        0
 34 35  4  0        0
 26 35  4  0        0
M  END
>  <CAS RN>
67485294

>  <SMILES>
N1CC(C)(C)CNC1=NN=C(C=Cc1ccc(C(F)(F)F)cc1)C=Cc1ccc(C(F)(F)F)cc1

>  <Measured or Estimated Log10(mmol/L)>
-2.64

$$$$

CDXL12

 19 20  0  0  0  0  0  0  0  0999 V2000
    1.2062    0.7145    0.0000 N   0  0  0  0  0  0  0  2  0  0  0  0
    1.6187   -0.0000    0.0000 C   0  0  0  0  0  0  0  2  0  0  0  0
    2.4437   -0.0000    0.0000 N   0  0  0  0  0  0  0  2  0  0  0  0
    1.2062   -0.7145    0.0000 N   0  0  0  0  0  0  0  2  0  0  0  0
    0.3812   -0.7145    0.0000 C   0  0  0  0  0  0  0  2  0  0  0  0
   -0.3151   -1.1570    0.0000 N   0  0  0  0  0  0  0  2  0  0  0  0
   -0.5695   -1.9418    0.0000 H   0  0  0  0  0  0  0  2  0  0  0  0
    0.2373   -1.7698    0.0000 H   0  0  0  0  0  0  0  2  0  0  0  0
   -1.1313   -1.0369    0.0000 O   0  0  0  0  0  0  0  2  0  0  0  0
   -1.6705   -0.4125    0.0000 C   0  0  0  0  0  0  0  2  0  0  0  0
   -2.4437   -0.7002    0.0000 O   0  0  0  0  0  0  0  2  0  0  0  0
   -1.6705    0.4125    0.0000 C   0  0  0  0  0  0  0  2  0  0  0  0
   -2.4437    0.7002    0.0000 O   0  0  0  0  0  0  0  2  0  0  0  0
   -1.1313    1.0369    0.0000 O   0  0  0  0  0  0  0  2  0  0  0  0
   -0.3151    1.1570    0.0000 N   0  0  0  0  0  0  0  2  0  0  0  0
    0.3812    0.7145    0.0000 C   0  0  0  0  0  0  0  2  0  0  0  0
   -0.0313   -0.0000    0.0000 N   0  0  0  0  0  0  0  2  0  0  0  0
    0.2373    1.7698    0.0000 H   0  0  0  0  0  0  0  2  0  0  0  0
   -0.5695    1.9418    0.0000 H   0  0  0  0  0  0  0  2  0  0  0  0
  1  2  4  0        0
  2  3  1  0        0
  2  4  4  0        0
  4  5  4  0        0
  5  6  1  0        0
  6  7  1  0        0
  6  8  1  0        0
  6  9  1  0        0
  9 10  1  0        0
 10 11  2  0        0
 10 12  1  0        0
 12 13  2  0        0
 12 14  1  0        0
 14 15  1  0        0
 15 16  1  0        0
  1 16  4  0        0
 16 17  4  0        0
  5 17  4  0        0
 15 18  1  0        0
 15 19  1  0        0
M  END
>  <CAS RN>
67797686

>  <SMILES>
n1c(N)nc2N([H])([H])OC(=O)C(=O)ON(c1n2)([H])[H]

>  <Measured or Estimated Log10(mmol/L)>
0.072420701

$$$$

CDXL12

 31 33  0  0  0  0  0  0  0  0999 V2000
   -2.9131    0.5082    0.0000 F   0  0  0  0  0  0  0  2  0  0  0  0
   -2.9131   -0.3168    0.0000 C   0  0  0  0  0  0  0  2  0  0  0  0
   -3.6276    0.0957    0.0000 F   0  0  0  0  0  0  0  2  0  0  0  0
   -3.6276   -0.7293    0.0000 F   0  0  0  0  0  0  0  2  0  0  0  0
   -2.1987   -0.7293    0.0000 C   0  0  0  0  0  0  0  2  0  0  0  0
   -2.1987   -1.5543    0.0000 Cl  0  0  0  0  0  0  0  2  0  0  0  0
   -1.4842   -0.3168    0.0000 C   0  0  0  0  0  0  0  2  0  0  0  0
   -0.7697   -0.7293    0.0000 C   0  0  0  0  0  0  0  2  0  0  0  0
   -0.3572   -1.4437    0.0000 C   0  0  0  0  0  0  0  2  0  0  0  0
    0.0553   -2.1582    0.0000 C   0  0  0  0  0  0  0  2  0  0  0  0
   -0.7697   -2.1582    0.0000 C   0  0  0  0  0  0  0  2  0  0  0  0
    0.0553   -0.7293    0.0000 C   0  0  0  0  0  0  0  2  0  0  0  0
    0.7697   -0.3168    0.0000 C   0  0  0  0  0  0  0  2  0  0  0  0
    0.7697    0.5082    0.0000 O   0  0  0  0  0  0  0  2  0  0  0  0
    1.4842   -0.7293    0.0000 O   0  0  0  0  0  0  0  2  0  0  0  0
    2.1987   -0.3168    0.0000 C   0  0  0  0  0  0  0  2  0  0  0  0
    2.9131   -0.7293    0.0000 C   0  0  0  0  0  0  0  2  0  0  0  0
    3.6276   -1.1418    0.0000 N   0  0  0  0  0  0  0  2  0  0  0  0
    2.1987    0.5082    0.0000 C   0  0  0  0  0  0  0  2  0  0  0  0
    1.4842    0.9207    0.0000 C   0  0  0  0  0  0  0  2  0  0  0  0
    1.4842    1.7457    0.0000 C   0  0  0  0  0  0  0  2  0  0  0  0
    0.7697    2.1582    0.0000 O   0  0  0  0  0  0  0  2  0  0  0  0
    0.0553    1.7457    0.0000 C   0  0  0  0  0  0  0  2  0  0  0  0
    0.0553    0.9207    0.0000 C   0  0  0  0  0  0  0  2  0  0  0  0
   -0.6592    0.5082    0.0000 C   0  0  0  0  0  0  0  2  0  0  0  0
   -1.3737    0.9207    0.0000 C   0  0  0  0  0  0  0  2  0  0  0  0
   -1.3737    1.7457    0.0000 C   0  0  0  0  0  0  0  2  0  0  0  0
   -0.6592    2.1582    0.0000 C   0  0  0  0  0  0  0  2  0  0  0  0
    2.1987    2.1582    0.0000 C   0  0  0  0  0  0  0  2  0  0  0  0
    2.9131    1.7457    0.0000 C   0  0  0  0  0  0  0  2  0  0  0  0
    2.9131    0.9207    0.0000 C   0  0  0  0  0  0  0  2  0  0  0  0
  1  2  1  0        0
  2  3  1  0        0
  2  4  1  0        0
  2  5  1  0        0
  5  6  1  0        0
  5  7  2  0        0
  7  8  1  0        0
  8  9  1  0        0
  9 10  1  0        0
  9 11  1  0        0
  9 12  1  0        0
  8 12  1  0        0
 12 13  1  0        0
 13 14  2  0        0
 13 15  1  0        0
 15 16  1  0        0
 16 17  1  0        0
 17 18  3  0        0
 16 19  1  0        0
 19 20  4  0        0
 20 21  4  0        0
 21 22  1  0        0
 22 23  1  0        0
 23 24  4  0        0
 24 25  4  0        0
 25 26  4  0        0
 26 27  4  0        0
 27 28  4  0        0
 23 28  4  0        0
 21 29  4  0        0
 29 30  4  0        0
 30 31  4  0        0
 19 31  4  0        0
M  END
>  <CAS RN>
68085858

>  <SMILES>
FC(F)(F)C(Cl)=CC1C(C)(C)C1C(=O)OC(C#N)c1cc(Oc2ccccc2)ccc1

>  <Measured or Estimated Log10(mmol/L)>
-4.206420065

$$$$

CDXL12

 29 31  0  0  0  0  0  0  0  0999 V2000
   -1.3737   -2.5707    0.0000 C   0  0  0  0  0  0  0  2  0  0  0  0
   -1.7862   -1.8562    0.0000 C   0  0  0  0  0  0  0  2  0  0  0  0
   -2.1987   -2.5707    0.0000 C   0  0  0  0  0  0  0  2  0  0  0  0
   -2.1987   -1.1418    0.0000 C   0  0  0  0  0  0  0  2  0  0  0  0
   -2.9131   -0.7293    0.0000 C   0  0  0  0  0  0  0  2  0  0  0  0
   -3.6276   -1.1418    0.0000 C   0  0  0  0  0  0  0  2  0  0  0  0
   -3.6276   -1.9668    0.0000 Cl  0  0  0  0  0  0  0  2  0  0  0  0
   -4.3421   -0.7293    0.0000 Cl  0  0  0  0  0  0  0  2  0  0  0  0
   -1.3737   -1.1418    0.0000 C   0  0  0  0  0  0  0  2  0  0  0  0
   -0.6592   -0.7293    0.0000 C   0  0  0  0  0  0  0  2  0  0  0  0
   -0.6592    0.0957    0.0000 O   0  0  0  0  0  0  0  2  0  0  0  0
    0.0553   -1.1418    0.0000 O   0  0  0  0  0  0  0  2  0  0  0  0
    0.7697   -0.7293    0.0000 C   0  0  0  0  0  0  0  2  0  0  0  0
    1.4842   -1.1418    0.0000 C   0  0  0  0  0  0  0  2  0  0  0  0
    2.1987   -1.5543    0.0000 N   0  0  0  0  0  0  0  2  0  0  0  0
    0.7697    0.0957    0.0000 C   0  0  0  0  0  0  0  2  0  0  0  0
    0.0553    0.5082    0.0000 C   0  0  0  0  0  0  0  2  0  0  0  0
    0.0553    1.3332    0.0000 C   0  0  0  0  0  0  0  2  0  0  0  0
    0.7697    1.7457    0.0000 C   0  0  0  0  0  0  0  2  0  0  0  0
    0.7697    2.5707    0.0000 F   0  0  0  0  0  0  0  2  0  0  0  0
    1.4842    1.3332    0.0000 C   0  0  0  0  0  0  0  2  0  0  0  0
    2.1987    1.7457    0.0000 O   0  0  0  0  0  0  0  2  0  0  0  0
    2.9131    1.3332    0.0000 C   0  0  0  0  0  0  0  2  0  0  0  0
    3.6276    1.7457    0.0000 C   0  0  0  0  0  0  0  2  0  0  0  0
    4.3421    1.3332    0.0000 C   0  0  0  0  0  0  0  2  0  0  0  0
    4.3421    0.5082    0.0000 C   0  0  0  0  0  0  0  2  0  0  0  0
    3.6276    0.0957    0.0000 C   0  0  0  0  0  0  0  2  0  0  0  0
    2.9131    0.5082    0.0000 C   0  0  0  0  0  0  0  2  0  0  0  0
    1.4842    0.5082    0.0000 C   0  0  0  0  0  0  0  2  0  0  0  0
  1  2  1  0        0
  2  3  1  0        0
  2  4  1  0        0
  4  5  1  0        0
  5  6  2  0        0
  6  7  1  0        0
  6  8  1  0        0
  4  9  1  0        0
  2  9  1  0        0
  9 10  1  0        0
 10 11  2  0        0
 10 12  1  0        0
 12 13  1  0        0
 13 14  1  0        0
 14 15  3  0        0
 13 16  1  0        0
 16 17  4  0        0
 17 18  4  0        0
 18 19  4  0        0
 19 20  1  0        0
 19 21  4  0        0
 21 22  1  0        0
 22 23  1  0        0
 23 24  4  0        0
 24 25  4  0        0
 25 26  4  0        0
 26 27  4  0        0
 27 28  4  0        0
 23 28  4  0        0
 21 29  4  0        0
 16 29  4  0        0
M  END
>  <CAS RN>
68359375

>  <SMILES>
CC1(C)C(C=C(Cl)Cl)C1C(=O)OC(C#N)c1ccc(F)c(Oc2ccccc2)c1

>  <Measured or Estimated Log10(mmol/L)>
-6.237599914

$$$$

CDXL12

 29 28  0  0  0  0  0  0  0  0999 V2000
  -10.0026   -0.2062    0.0000 C   0  0  0  0  0  0  0  2  0  0  0  0
   -9.2881    0.2062    0.0000 C   0  0  0  0  0  0  0  2  0  0  0  0
   -8.5737   -0.2062    0.0000 C   0  0  0  0  0  0  0  2  0  0  0  0
   -7.8592    0.2062    0.0000 C   0  0  0  0  0  0  0  2  0  0  0  0
   -7.1447   -0.2062    0.0000 C   0  0  0  0  0  0  0  2  0  0  0  0
   -6.4302    0.2062    0.0000 C   0  0  0  0  0  0  0  2  0  0  0  0
   -5.7158   -0.2062    0.0000 C   0  0  0  0  0  0  0  2  0  0  0  0
   -5.0013    0.2062    0.0000 C   0  0  0  0  0  0  0  2  0  0  0  0
   -4.2868   -0.2062    0.0000 C   0  0  0  0  0  0  0  2  0  0  0  0
   -3.5724    0.2062    0.0000 C   0  0  0  0  0  0  0  2  0  0  0  0
   -2.8579   -0.2062    0.0000 O   0  0  0  0  0  0  0  2  0  0  0  0
   -2.1434    0.2062    0.0000 C   0  0  0  0  0  0  0  2  0  0  0  0
   -1.4289   -0.2062    0.0000 C   0  0  0  0  0  0  0  2  0  0  0  0
   -0.7145    0.2062    0.0000 O   0  0  0  0  0  0  0  2  0  0  0  0
   -0.0000   -0.2062    0.0000 C   0  0  0  0  0  0  0  2  0  0  0  0
    0.7145    0.2062    0.0000 C   0  0  0  0  0  0  0  2  0  0  0  0
    1.4289   -0.2062    0.0000 O   0  0  0  0  0  0  0  2  0  0  0  0
    2.1434    0.2062    0.0000 C   0  0  0  0  0  0  0  2  0  0  0  0
    2.8579   -0.2062    0.0000 C   0  0  0  0  0  0  0  2  0  0  0  0
    3.5724    0.2062    0.0000 O   0  0  0  0  0  0  0  2  0  0  0  0
    4.2868   -0.2062    0.0000 C   0  0  0  0  0  0  0  2  0  0  0  0
    5.0013    0.2062    0.0000 C   0  0  0  0  0  0  0  2  0  0  0  0
    5.7158   -0.2062    0.0000 O   0  0  0  0  0  0  0  2  0  0  0  0
    6.4302    0.2062    0.0000 C   0  0  0  0  0  0  0  2  0  0  0  0
    7.1447   -0.2062    0.0000 C   0  0  0  0  0  0  0  2  0  0  0  0
    7.8592    0.2062    0.0000 O   0  0  0  0  0  0  0  2  0  0  0  0
    8.5737   -0.2062    0.0000 C   0  0  0  0  0  0  0  2  0  0  0  0
    9.2881    0.2062    0.0000 C   0  0  0  0  0  0  0  2  0  0  0  0
   10.0026   -0.2062    0.0000 O   0  0  0  0  0  0  0  2  0  0  0  0
  1  2  1  0        0
  2  3  1  0        0
  3  4  1  0        0
  4  5  1  0        0
  5  6  1  0        0
  6  7  1  0        0
  7  8  1  0        0
  8  9  1  0        0
  9 10  1  0        0
 10 11  1  0        0
 11 12  1  0        0
 12 13  1  0        0
 13 14  1  0        0
 14 15  1  0        0
 15 16  1  0        0
 16 17  1  0        0
 17 18  1  0        0
 18 19  1  0        0
 19 20  1  0        0
 20 21  1  0        0
 21 22  1  0        0
 22 23  1  0        0
 23 24  1  0        0
 24 25  1  0        0
 25 26  1  0        0
 26 27  1  0        0
 27 28  1  0        0
 28 29  1  0        0
M  END
>  <CAS RN>
68439463

>  <SMILES>
CCCCCCCCCCOCCOCCOCCOCCOCCOCCO

>  <Measured or Estimated Log10(mmol/L)>
-1.901656697

$$$$

CDXL12

 33 35  0  0  0  0  0  0  0  0999 V2000
   -1.7862    0.8250    0.0000 C   0  0  0  0  0  0  0  2  0  0  0  0
   -1.7862    0.0000    0.0000 C   0  0  0  0  0  0  0  2  0  0  0  0
   -2.5006   -0.4125    0.0000 C   0  0  0  0  0  0  0  2  0  0  0  0
   -1.0717   -0.4125    0.0000 C   0  0  0  0  0  0  0  2  0  0  0  0
   -0.3572    0.0000    0.0000 C   0  0  0  0  0  0  0  2  0  0  0  0
   -0.3572    0.8250    0.0000 O   0  0  0  0  0  0  0  2  0  0  0  0
    0.3572   -0.4125    0.0000 O   0  0  0  0  0  0  0  2  0  0  0  0
    1.0717   -0.0000    0.0000 C   0  0  0  0  0  0  0  2  0  0  0  0
    1.7862   -0.4125    0.0000 C   0  0  0  0  0  0  0  2  0  0  0  0
    2.5006   -0.8250    0.0000 N   0  0  0  0  0  0  0  2  0  0  0  0
    1.0717    0.8250    0.0000 C   0  0  0  0  0  0  0  2  0  0  0  0
    1.7862    1.2375    0.0000 C   0  0  0  0  0  0  0  2  0  0  0  0
    1.7862    2.0625    0.0000 C   0  0  0  0  0  0  0  2  0  0  0  0
    1.0717    2.4750    0.0000 C   0  0  0  0  0  0  0  2  0  0  0  0
    0.3572    2.0625    0.0000 C   0  0  0  0  0  0  0  2  0  0  0  0
   -0.3572    2.4750    0.0000 O   0  0  0  0  0  0  0  2  0  0  0  0
   -0.3572    3.3000    0.0000 C   0  0  0  0  0  0  0  2  0  0  0  0
   -1.0717    3.7125    0.0000 C   0  0  0  0  0  0  0  2  0  0  0  0
   -1.0717    4.5375    0.0000 C   0  0  0  0  0  0  0  2  0  0  0  0
   -0.3572    4.9500    0.0000 C   0  0  0  0  0  0  0  2  0  0  0  0
    0.3572    4.5375    0.0000 C   0  0  0  0  0  0  0  2  0  0  0  0
    0.3572    3.7125    0.0000 C   0  0  0  0  0  0  0  2  0  0  0  0
    0.3572    1.2375    0.0000 C   0  0  0  0  0  0  0  2  0  0  0  0
   -1.0717   -1.2375    0.0000 C   0  0  0  0  0  0  0  2  0  0  0  0
   -1.7862   -1.6500    0.0000 C   0  0  0  0  0  0  0  2  0  0  0  0
   -1.7862   -2.4750    0.0000 C   0  0  0  0  0  0  0  2  0  0  0  0
   -1.0717   -2.8875    0.0000 C   0  0  0  0  0  0  0  2  0  0  0  0
   -1.0717   -3.7125    0.0000 O   0  0  0  0  0  0  0  2  0  0  0  0
   -1.7862   -4.1250    0.0000 C   0  0  0  0  0  0  0  2  0  0  0  0
   -2.5006   -3.7125    0.0000 F   0  0  0  0  0  0  0  2  0  0  0  0
   -1.7862   -4.9500    0.0000 F   0  0  0  0  0  0  0  2  0  0  0  0
   -0.3572   -2.4750    0.0000 C   0  0  0  0  0  0  0  2  0  0  0  0
   -0.3572   -1.6500    0.0000 C   0  0  0  0  0  0  0  2  0  0  0  0
  1  2  1  0        0
  2  3  1  0        0
  2  4  1  0        0
  4  5  1  0        0
  5  6  2  0        0
  5  7  1  0        0
  7  8  1  0        0
  8  9  1  0        0
  9 10  3  0        0
  8 11  1  0        0
 11 12  4  0        0
 12 13  4  0        0
 13 14  4  0        0
 14 15  4  0        0
 15 16  1  0        0
 16 17  1  0        0
 17 18  4  0        0
 18 19  4  0        0
 19 20  4  0        0
 20 21  4  0        0
 21 22  4  0        0
 17 22  4  0        0
 15 23  4  0        0
 11 23  4  0        0
  4 24  1  0        0
 24 25  4  0        0
 25 26  4  0        0
 26 27  4  0        0
 27 28  1  0        0
 28 29  1  0        0
 29 30  1  0        0
 29 31  1  0        0
 27 32  4  0        0
 32 33  4  0        0
 24 33  4  0        0
M  END
>  <CAS RN>
70124775

>  <SMILES>
CC(C)C(C(=O)OC(C#N)c1cccc(Oc2ccccc2)c1)c1ccc(OC(F)F)cc1

>  <Measured or Estimated Log10(mmol/L)>
-4.74

$$$$

CDXL12

 66 72  0  0  0  0  0  0  0  0999 V2000
   -3.5724    2.4750    0.0000 O   0  0  0  0  0  0  0  2  0  0  0  0
   -4.2868    2.8875    0.0000 C   0  0  0  0  0  0  0  2  0  0  0  0
   -4.2868    3.7125    0.0000 C   0  0  0  0  0  0  0  2  0  0  0  0
   -5.0013    2.4750    0.0000 C   0  0  0  0  0  0  0  2  0  0  0  0
   -5.7158    2.8875    0.0000 O   0  0  0  0  0  0  0  2  0  0  0  0
   -5.0013    1.6500    0.0000 C   0  0  0  0  0  0  0  2  0  0  0  0
   -5.7158    1.2375    0.0000 O   0  0  0  0  0  0  0  2  0  0  0  0
   -6.4302    1.6500    0.0000 C   0  0  0  0  0  0  0  2  0  0  0  0
   -4.2868    1.2375    0.0000 C   0  0  0  0  0  0  0  2  0  0  0  0
   -3.5724    1.6500    0.0000 C   0  0  0  0  0  0  0  2  0  0  0  0
   -2.8579    1.2375    0.0000 O   0  0  0  0  0  0  0  2  0  0  0  0
   -2.1434    1.6500    0.0000 C   0  0  0  0  0  0  0  2  0  0  0  0
   -2.1434    2.4750    0.0000 C   0  0  0  0  0  0  0  2  0  0  0  0
   -2.8579    2.8875    0.0000 O   0  0  0  0  0  0  0  2  0  0  0  0
   -2.8579    3.7125    0.0000 C   0  0  0  0  0  0  0  2  0  0  0  0
   -1.4289    2.8875    0.0000 C   0  0  0  0  0  0  0  2  0  0  0  0
   -0.7145    2.4750    0.0000 C   0  0  0  0  0  0  0  2  0  0  0  0
   -0.7145    1.6500    0.0000 O   0  0  0  0  0  0  0  2  0  0  0  0
   -1.4289    1.2375    0.0000 C   0  0  0  0  0  0  0  2  0  0  0  0
   -1.4289    0.4125    0.0000 C   0  0  0  0  0  0  0  2  0  0  0  0
    0.0000    2.8875    0.0000 O   0  0  0  0  0  0  0  2  0  0  0  0
    0.7145    2.4750    0.0000 C   0  0  0  0  0  0  0  2  0  0  0  0
    1.4289    2.8875    0.0000 C   0  0  0  0  0  0  0  2  0  0  0  0
    1.4289    3.7125    0.0000 C   0  0  0  0  0  0  0  2  0  0  0  0
    2.1434    2.4750    0.0000 C   0  0  0  0  0  0  0  2  0  0  0  0
    2.1434    1.6500    0.0000 C   0  0  0  0  0  0  0  2  0  0  0  0
    2.8579    1.2375    0.0000 C   0  0  0  0  0  0  0  2  0  0  0  0
    3.5724    1.6500    0.0000 C   0  0  0  0  0  0  0  2  0  0  0  0
    3.8743    2.4177    0.0000 C   0  0  0  0  0  0  0  2  0  0  0  0
    4.6993    2.4177    0.0000 O   0  0  0  0  0  0  0  2  0  0  0  0
    5.0013    1.6500    0.0000 C   0  0  0  0  0  0  0  2  0  0  0  0
    5.6264    2.1884    0.0000 H   0  0  0  0  0  0  0  2  0  0  0  0
    5.7158    1.2375    0.0000 C   0  0  0  0  0  0  0  2  0  0  0  0
    6.4302    1.6500    0.0000 O   0  0  0  0  0  0  0  2  0  0  0  0
    5.7158    0.4125    0.0000 C   0  0  0  0  0  0  0  2  0  0  0  0
    6.4302   -0.0000    0.0000 C   0  0  0  0  0  0  0  2  0  0  0  0
    5.0013   -0.0000    0.0000 C   0  0  0  0  0  0  0  2  0  0  0  0
    4.2868    0.4125    0.0000 C   0  0  0  0  0  0  0  2  0  0  0  0
    4.2868   -0.4125    0.0000 H   0  0  0  0  0  0  0  2  0  0  0  0
    4.2868    1.2375    0.0000 C   0  0  0  0  0  0  0  2  0  0  0  0
    4.2868    2.0625    0.0000 O   0  0  0  0  0  0  0  2  0  0  0  0
    3.5724   -0.0000    0.0000 C   0  0  0  0  0  0  0  2  0  0  0  0
    3.5724   -0.8250    0.0000 O   0  0  0  0  0  0  0  2  0  0  0  0
    2.8579    0.4125    0.0000 O   0  0  0  0  0  0  0  2  0  0  0  0
    2.1434   -0.0000    0.0000 C   0  0  0  0  0  0  0  2  0  0  0  0
    1.4289    0.4125    0.0000 C   0  0  0  0  0  0  0  2  0  0  0  0
    0.7145   -0.0000    0.0000 C   0  0  0  0  0  0  0  2  0  0  0  0
    0.0000   -0.4125    0.0000 H   0  0  0  0  0  0  0  2  0  0  0  0
    0.0000    0.4125    0.0000 C   0  0  0  0  0  0  0  2  0  0  0  0
    0.0000    1.2375    0.0000 C   0  0  0  0  0  0  0  2  0  0  0  0
    0.7145    1.6500    0.0000 C   0  0  0  0  0  0  0  2  0  0  0  0
    1.4289    1.2375    0.0000 C   0  0  0  0  0  0  0  2  0  0  0  0
    0.7145   -0.8250    0.0000 O   0  0  0  0  0  0  0  2  0  0  0  0
    1.4289   -1.2375    0.0000 C   0  0  0  0  0  0  0  2  0  0  0  0
    2.1434   -0.8250    0.0000 C   0  0  0  0  0  0  0  2  0  0  0  0
    2.1434   -1.6500    0.0000 C   0  0  0  0  0  0  0  2  0  0  0  0
    2.1434   -2.4750    0.0000 C   0  0  0  0  0  0  0  2  0  0  0  0
    1.4289   -2.8875    0.0000 C   0  0  0  0  0  0  0  2  0  0  0  0
    1.4289   -3.7125    0.0000 C   0  0  0  0  0  0  0  2  0  0  0  0
    0.7145   -2.4750    0.0000 C   0  0  0  0  0  0  0  2  0  0  0  0
    0.7145   -3.3000    0.0000 H   0  0  0  0  0  0  0  2  0  0  0  0
    0.0000   -2.8875    0.0000 C   0  0  0  0  0  0  0  2  0  0  0  0
    0.0000   -3.7125    0.0000 C   0  0  0  0  0  0  0  2  0  0  0  0
   -0.7145   -2.4750    0.0000 C   0  0  0  0  0  0  0  2  0  0  0  0
   -1.4289   -2.8875    0.0000 C   0  0  0  0  0  0  0  2  0  0  0  0
    0.7145   -1.6500    0.0000 O   0  0  0  0  0  0  0  2  0  0  0  0
  1  2  1  0        0
  2  3  1  0        0
  2  4  1  0        0
  4  5  1  0        0
  4  6  1  0        0
  6  7  1  0        0
  7  8  1  0        0
  6  9  1  0        0
  9 10  1  0        0
  1 10  1  0        0
 10 11  1  0        0
 11 12  1  0        0
 12 13  1  0        0
 13 14  1  0        0
 14 15  1  0        0
 13 16  1  0        0
 16 17  1  0        0
 17 18  1  0        0
 18 19  1  0        0
 12 19  1  0        0
 19 20  1  0        0
 17 21  1  0        0
 21 22  1  0        0
 22 23  1  0        0
 23 24  1  0        0
 23 25  1  0        0
 25 26  2  0        0
 26 27  1  0        0
 27 28  2  0        0
 28 29  1  0        0
 29 30  1  0        0
 30 31  1  0        0
 31 32  1  6        0
 31 33  1  0        0
 33 34  1  6        0
 33 35  1  0        0
 35 36  1  0        0
 35 37  2  0        0
 37 38  1  0        0
 38 39  1  6        0
 38 40  1  0        0
 28 40  1  0        0
 31 40  1  0        0
 40 41  1  6        0
 38 42  1  0        0
 42 43  2  0        0
 42 44  1  0        0
 44 45  1  0        0
 45 46  1  0        0
 46 47  1  0        0
 47 48  1  6        0
 47 49  1  0        0
 49 50  1  0        0
 50 51  2  0        0
 22 51  1  0        0
 51 52  1  0        0
 47 53  1  0        0
 53 54  1  0        0
 54 55  1  0        0
 45 55  1  0        0
 54 56  1  0        0
 56 57  2  0        0
 57 58  1  0        0
 58 59  1  0        0
 58 60  1  0        0
 60 61  1  6        0
 60 62  1  0        0
 62 63  1  0        0
 62 64  1  0        0
 64 65  1  0        0
 60 66  1  0        0
 54 66  1  0        0
M  END
>  <CAS RN>
71751412

>  <SMILES>
O1C(C)C(O)C(OC)CC1OC1C(OC)CC(OC1C)OC1C(C)C=CC=C2CO[C@@]3([H])[C@H](O)\C(\C)=C/[C@]([H])([C@@]23O)C(=O)OC2C[C@]([H])(CC=C1C)OC1(C2)\C=C/C(C)[C@@]([H])(C(C)CC)O1

>  <Measured or Estimated Log10(mmol/L)>
-6.409580087

$$$$

CDXL12

 32 34  0  0  0  0  0  0  0  0999 V2000
   -1.7309    1.6500    0.0000 S   0  0  0  0  0  0  0  2  0  0  0  0
   -0.9059    1.6500    0.0000 O   0  0  0  0  0  0  0  2  0  0  0  0
   -2.5559    1.6500    0.0000 O   0  0  0  0  0  0  0  2  0  0  0  0
   -1.7309    2.4750    0.0000 O   0  0  0  0  0  0  0  2  0  0  0  0
   -1.0164    2.8875    0.0000 Li  0  0  0  0  0  0  0  2  0  0  0  0
   -1.7309    0.8250    0.0000 C   0  0  0  0  0  0  0  2  0  0  0  0
   -1.0164    0.4125    0.0000 C   0  0  0  0  0  0  0  2  0  0  0  0
   -1.0164   -0.4125    0.0000 C   0  0  0  0  0  0  0  2  0  0  0  0
   -1.7309   -0.8250    0.0000 C   0  0  0  0  0  0  0  2  0  0  0  0
   -2.4454   -0.4125    0.0000 C   0  0  0  0  0  0  0  2  0  0  0  0
   -2.4454    0.4125    0.0000 C   0  0  0  0  0  0  0  2  0  0  0  0
   -3.1599    0.8250    0.0000 C   0  0  0  0  0  0  0  2  0  0  0  0
   -3.8743    0.4125    0.0000 C   0  0  0  0  0  0  0  2  0  0  0  0
   -3.8743   -0.4125    0.0000 C   0  0  0  0  0  0  0  2  0  0  0  0
   -3.1599   -0.8250    0.0000 C   0  0  0  0  0  0  0  2  0  0  0  0
   -3.1599   -1.6500    0.0000 S   0  0  0  0  0  0  0  2  0  0  0  0
   -3.9849   -1.6500    0.0000 O   0  0  0  0  0  0  0  2  0  0  0  0
   -2.3349   -1.6500    0.0000 O   0  0  0  0  0  0  0  2  0  0  0  0
   -3.1599   -2.4750    0.0000 O   0  0  0  0  0  0  0  2  0  0  0  0
   -3.8743   -2.8875    0.0000 Na  0  0  0  0  0  0  0  2  0  0  0  0
   -0.3020   -0.8250    0.0000 N   0  0  0  0  0  0  0  2  0  0  0  0
    0.4125   -0.4125    0.0000 N   0  0  0  0  0  0  0  2  0  0  0  0
    1.1270   -0.8250    0.0000 C   0  0  0  0  0  0  0  2  0  0  0  0
    1.1270   -1.6500    0.0000 C   0  0  0  0  0  0  0  2  0  0  0  0
    0.4125   -2.0625    0.0000 C   0  0  0  0  0  0  0  2  0  0  0  0
    1.8414   -2.0625    0.0000 C   0  0  0  0  0  0  0  2  0  0  0  0
    2.5559   -1.6500    0.0000 C   0  0  0  0  0  0  0  2  0  0  0  0
    3.2704   -2.0625    0.0000 N   0  0  0  0  0  0  0  2  0  0  0  0
    2.5559   -0.8250    0.0000 C   0  0  0  0  0  0  0  2  0  0  0  0
    1.8414   -0.4125    0.0000 C   0  0  0  0  0  0  0  2  0  0  0  0
    3.2704   -0.4125    0.0000 O   0  0  0  0  0  0  0  2  0  0  0  0
    3.9849   -0.8250    0.0000 C   0  0  0  0  0  0  0  2  0  0  0  0
  1  2  2  0        0
  1  3  2  0        0
  1  4  1  0        0
  4  5  1  0        0
  1  6  1  0        0
  6  7  4  0        0
  7  8  4  0        0
  8  9  4  0        0
  9 10  4  0        0
 10 11  4  0        0
  6 11  4  0        0
 11 12  4  0        0
 12 13  4  0        0
 13 14  4  0        0
 14 15  4  0        0
 10 15  4  0        0
 15 16  1  0        0
 16 17  2  0        0
 16 18  2  0        0
 16 19  1  0        0
 19 20  1  0        0
  8 21  1  0        0
 21 22  2  0        0
 22 23  1  0        0
 23 24  4  0        0
 24 25  1  0        0
 24 26  4  0        0
 26 27  4  0        0
 27 28  1  0        0
 27 29  4  0        0
 29 30  4  0        0
 23 30  4  0        0
 29 31  1  0        0
 31 32  1  0        0
M  END
>  <CAS RN>
75198800

>  <SMILES>
S(=O)(=O)(O[Li])c1cc(cc2c1cccc2S(=O)(=O)O[Na])N=Nc1c(C)cc(N)c(c1)OC

>  <Measured or Estimated Log10(mmol/L)>
0.21084759

$$$$

CDXL12

 20 21  0  0  0  0  0  0  0  0999 V2000
   -0.0470   -0.8814    0.0000 C   0  0  0  0  0  0  0  2  0  0  0  0
   -0.3020   -1.6660    0.0000 N   0  0  0  0  0  0  0  2  0  0  0  0
   -1.1270   -1.6660    0.0000 C   0  0  0  0  0  0  0  2  0  0  0  0
   -1.3819   -0.8814    0.0000 N   0  0  0  0  0  0  0  2  0  0  0  0
   -0.7145   -0.3965    0.0000 N   0  0  0  0  0  0  0  2  0  0  0  0
   -0.7145    0.4285    0.0000 C   0  0  0  0  0  0  0  2  0  0  0  0
   -1.4289    0.8410    0.0000 C   0  0  0  0  0  0  0  2  0  0  0  0
   -1.4289    1.6660    0.0000 O   0  0  0  0  0  0  0  2  0  0  0  0
   -2.1434    0.4285    0.0000 C   0  0  0  0  0  0  0  2  0  0  0  0
   -2.1434   -0.3965    0.0000 C   0  0  0  0  0  0  0  2  0  0  0  0
   -2.8579    0.0160    0.0000 C   0  0  0  0  0  0  0  2  0  0  0  0
   -2.8579    0.8410    0.0000 C   0  0  0  0  0  0  0  2  0  0  0  0
   -0.0000    0.8410    0.0000 C   0  0  0  0  0  0  0  2  0  0  0  0
    0.7145    0.4285    0.0000 C   0  0  0  0  0  0  0  2  0  0  0  0
    1.4289    0.8410    0.0000 C   0  0  0  0  0  0  0  2  0  0  0  0
    2.1434    0.4285    0.0000 C   0  0  0  0  0  0  0  2  0  0  0  0
    2.1434   -0.3965    0.0000 C   0  0  0  0  0  0  0  2  0  0  0  0
    2.8579   -0.8090    0.0000 Cl  0  0  0  0  0  0  0  2  0  0  0  0
    1.4289   -0.8090    0.0000 C   0  0  0  0  0  0  0  2  0  0  0  0
    0.7145   -0.3965    0.0000 C   0  0  0  0  0  0  0  2  0  0  0  0
  1  2  4  0        0
  2  3  4  0        0
  3  4  4  0        0
  4  5  4  0        0
  1  5  4  0        0
  5  6  1  0        0
  6  7  1  0        0
  7  8  1  0        0
  7  9  1  0        0
  9 10  1  0        0
  9 11  1  0        0
  9 12  1  0        0
  6 13  1  0        0
 13 14  1  0        0
 14 15  4  0        0
 15 16  4  0        0
 16 17  4  0        0
 17 18  1  0        0
 17 19  4  0        0
 19 20  4  0        0
 14 20  4  0        0
M  END
>  <CAS RN>
76738620

>  <SMILES>
c1ncnn1C(C(O)C(C)(C)C)Cc1ccc(Cl)cc1

>  <Measured or Estimated Log10(mmol/L)>
-0.784348855

$$$$

CDXL12

 20 21  0  0  0  0  0  0  0  0999 V2000
    0.3572   -1.8723    0.0000 C   0  0  0  0  0  0  0  2  0  0  0  0
    1.0717   -1.4598    0.0000 C   0  0  0  0  0  0  0  2  0  0  0  0
    1.7862   -1.8723    0.0000 C   0  0  0  0  0  0  0  2  0  0  0  0
    2.5006   -1.4598    0.0000 C   0  0  0  0  0  0  0  2  0  0  0  0
    2.5006   -0.6348    0.0000 C   0  0  0  0  0  0  0  2  0  0  0  0
    1.7862   -0.2223    0.0000 C   0  0  0  0  0  0  0  2  0  0  0  0
    1.7862    0.6027    0.0000 C   0  0  0  0  0  0  0  2  0  0  0  0
    1.0717   -0.6348    0.0000 C   0  0  0  0  0  0  0  2  0  0  0  0
    0.3572   -0.2223    0.0000 N   0  0  0  0  0  0  0  2  0  0  0  0
   -0.3572   -0.6348    0.0000 C   0  0  0  0  0  0  0  2  0  0  0  0
   -0.3572   -1.4598    0.0000 O   0  0  0  0  0  0  0  2  0  0  0  0
   -1.0717   -0.2223    0.0000 C   0  0  0  0  0  0  0  2  0  0  0  0
   -1.7862   -0.6348    0.0000 O   0  0  0  0  0  0  0  2  0  0  0  0
   -2.5006   -0.2223    0.0000 C   0  0  0  0  0  0  0  2  0  0  0  0
    0.3572    0.6027    0.0000 N   0  0  0  0  0  0  0  2  0  0  0  0
   -0.3102    1.0877    0.0000 C   0  0  0  0  0  0  0  2  0  0  0  0
   -1.0948    0.8327    0.0000 O   0  0  0  0  0  0  0  2  0  0  0  0
   -0.0553    1.8723    0.0000 O   0  0  0  0  0  0  0  2  0  0  0  0
    0.7697    1.8723    0.0000 C   0  0  0  0  0  0  0  2  0  0  0  0
    1.0247    1.0877    0.0000 C   0  0  0  0  0  0  0  2  0  0  0  0
  1  2  1  0        0
  2  3  4  0        0
  3  4  4  0        0
  4  5  4  0        0
  5  6  4  0        0
  6  7  1  0        0
  6  8  4  0        0
  2  8  4  0        0
  8  9  1  0        0
  9 10  1  0        0
 10 11  2  0        0
 10 12  1  0        0
 12 13  1  0        0
 13 14  1  0        0
  9 15  1  0        0
 15 16  1  0        0
 16 17  2  0        0
 16 18  1  0        0
 18 19  1  0        0
 19 20  1  0        0
 15 20  1  0        0
M  END
>  <CAS RN>
77732093

>  <SMILES>
Cc1cccc(C)c1N(C(=O)COC)N1C(=O)OCC1

>  <Measured or Estimated Log10(mmol/L)>
-0.2120952

$$$$

CDXL12

 11 11  0  0  0  0  0  0  0  0999 V2000
    1.2925    0.7023    0.0000 C   0  0  0  0  0  0  0  2  0  0  0  0
    0.4855    0.5307    0.0000 C   0  0  0  0  0  0  0  2  0  0  0  0
    0.3993   -0.2898    0.0000 N   0  0  0  0  0  0  0  2  0  0  0  0
    1.1529   -0.6253    0.0000 C   0  0  0  0  0  0  0  2  0  0  0  0
    1.7050   -0.0122    0.0000 N   0  0  0  0  0  0  0  2  0  0  0  0
    2.3724   -0.4971    0.0000 Cl  0  0  0  0  0  0  0  2  0  0  0  0
    2.4586    0.3233    0.0000 C   0  0  0  0  0  0  0  2  0  0  0  0
   -0.3152   -0.7023    0.0000 C   0  0  0  0  0  0  0  2  0  0  0  0
   -1.0297   -0.2898    0.0000 C   0  0  0  0  0  0  0  2  0  0  0  0
   -1.7442   -0.7023    0.0000 C   0  0  0  0  0  0  0  2  0  0  0  0
   -2.4586   -0.2898    0.0000 C   0  0  0  0  0  0  0  2  0  0  0  0
  1  2  2  0        0
  2  3  1  0        0
  3  4  1  0        0
  4  5  2  0        0
  1  5  1  0        0
  5  6  1  0        0
  5  7  1  0        0
  3  8  1  0        0
  8  9  1  0        0
  9 10  1  0        0
 10 11  1  0        0
M  END
>  <CAS RN>
79917901

>  <SMILES>
C/1=C/N(C=N1(Cl)C)CCCC

>  <Measured or Estimated Log10(mmol/L)>
-1.455949268

$$$$

CDXL12

 33 34  0  0  0  0  0  0  0  0999 V2000
   -2.7831    1.4785    0.0000 C   0  0  0  0  0  0  0  2  0  0  0  0
   -2.0294    1.8141    0.0000 C   0  0  0  0  0  0  0  2  0  0  0  0
   -1.4774    1.2010    0.0000 C   0  0  0  0  0  0  0  2  0  0  0  0
   -0.6569    1.2872    0.0000 C   0  0  0  0  0  0  0  2  0  0  0  0
   -1.8899    0.4865    0.0000 C   0  0  0  0  0  0  0  2  0  0  0  0
   -2.6969    0.6580    0.0000 C   0  0  0  0  0  0  0  2  0  0  0  0
   -3.3100    0.1060    0.0000 C   0  0  0  0  0  0  0  2  0  0  0  0
   -4.1169    0.2775    0.0000 C   0  0  0  0  0  0  0  2  0  0  0  0
   -4.5294   -0.4369    0.0000 C   0  0  0  0  0  0  0  2  0  0  0  0
   -5.3499   -0.5232    0.0000 C   0  0  0  0  0  0  0  2  0  0  0  0
   -3.9774   -1.0500    0.0000 C   0  0  0  0  0  0  0  2  0  0  0  0
   -3.2237   -0.7145    0.0000 C   0  0  0  0  0  0  0  2  0  0  0  0
   -2.5093   -1.1270    0.0000 C   0  0  0  0  0  0  0  2  0  0  0  0
   -1.7948   -0.7145    0.0000 C   0  0  0  0  0  0  0  2  0  0  0  0
   -1.0803   -1.1270    0.0000 C   0  0  0  0  0  0  0  2  0  0  0  0
   -0.3658   -0.7145    0.0000 C   0  0  0  0  0  0  0  2  0  0  0  0
    0.3486   -1.1270    0.0000 C   0  0  0  0  0  0  0  2  0  0  0  0
    1.0631   -0.7145    0.0000 C   0  0  0  0  0  0  0  2  0  0  0  0
    1.0631    0.1105    0.0000 O   0  0  0  0  0  0  0  2  0  0  0  0
    1.7776   -1.1270    0.0000 O   0  0  0  0  0  0  0  2  0  0  0  0
    2.4920   -0.7145    0.0000 Sn  0  0  0  0  0  0  0  2  0  0  0  0
    2.0795    0.0000    0.0000 C   0  0  0  0  0  0  0  2  0  0  0  0
    2.4920    0.7145    0.0000 C   0  0  0  0  0  0  0  2  0  0  0  0
    2.0795    1.4289    0.0000 C   0  0  0  0  0  0  0  2  0  0  0  0
    2.4920    2.1434    0.0000 C   0  0  0  0  0  0  0  2  0  0  0  0
    3.2065   -0.3020    0.0000 C   0  0  0  0  0  0  0  2  0  0  0  0
    3.9210   -0.7145    0.0000 C   0  0  0  0  0  0  0  2  0  0  0  0
    4.6354   -0.3020    0.0000 C   0  0  0  0  0  0  0  2  0  0  0  0
    5.3499   -0.7145    0.0000 C   0  0  0  0  0  0  0  2  0  0  0  0
    2.9045   -1.4289    0.0000 C   0  0  0  0  0  0  0  2  0  0  0  0
    3.7295   -1.4289    0.0000 C   0  0  0  0  0  0  0  2  0  0  0  0
    4.1420   -2.1434    0.0000 C   0  0  0  0  0  0  0  2  0  0  0  0
    4.9670   -2.1434    0.0000 C   0  0  0  0  0  0  0  2  0  0  0  0
  1  2  1  0        0
  2  3  1  0        0
  3  4  1  0        0
  3  5  1  0        0
  5  6  1  0        0
  1  6  1  0        0
  6  7  1  0        0
  7  8  1  0        0
  8  9  1  0        0
  9 10  1  0        0
  9 11  1  0        0
 11 12  1  0        0
  7 12  1  0        0
 12 13  1  0        0
 13 14  1  0        0
 14 15  1  0        0
 15 16  1  0        0
 16 17  1  0        0
 17 18  1  0        0
 18 19  2  0        0
 18 20  1  0        0
 20 21  1  0        0
 21 22  1  0        0
 22 23  1  0        0
 23 24  1  0        0
 24 25  1  0        0
 21 26  1  0        0
 26 27  1  0        0
 27 28  1  0        0
 28 29  1  0        0
 21 30  1  0        0
 30 31  1  0        0
 31 32  1  0        0
 32 33  1  0        0
M  END
>  <CAS RN>
85100772

>  <SMILES>
C1CC(C)CC1C1CC(C)CC1CCCCCC(=O)O[Sn](CCCC)(CCCC)CCCC

>  <Measured or Estimated Log10(mmol/L)>
-1.748357972

$$$$

CDXL12

 33 34  0  0  0  0  0  0  0  0999 V2000
   -2.7831    1.4785    0.0000 C   0  0  0  0  0  0  0  2  0  0  0  0
   -2.0294    1.8141    0.0000 C   0  0  0  0  0  0  0  2  0  0  0  0
   -1.4774    1.2010    0.0000 C   0  0  0  0  0  0  0  2  0  0  0  0
   -0.6569    1.2872    0.0000 C   0  0  0  0  0  0  0  2  0  0  0  0
   -1.8899    0.4865    0.0000 C   0  0  0  0  0  0  0  2  0  0  0  0
   -2.6969    0.6580    0.0000 C   0  0  0  0  0  0  0  2  0  0  0  0
   -3.3100    0.1060    0.0000 C   0  0  0  0  0  0  0  2  0  0  0  0
   -4.1169    0.2775    0.0000 C   0  0  0  0  0  0  0  2  0  0  0  0
   -4.5294   -0.4369    0.0000 C   0  0  0  0  0  0  0  2  0  0  0  0
   -5.3499   -0.5232    0.0000 C   0  0  0  0  0  0  0  2  0  0  0  0
   -3.9774   -1.0500    0.0000 C   0  0  0  0  0  0  0  2  0  0  0  0
   -3.2237   -0.7145    0.0000 C   0  0  0  0  0  0  0  2  0  0  0  0
   -2.5093   -1.1270    0.0000 C   0  0  0  0  0  0  0  2  0  0  0  0
   -1.7948   -0.7145    0.0000 C   0  0  0  0  0  0  0  2  0  0  0  0
   -1.0803   -1.1270    0.0000 C   0  0  0  0  0  0  0  2  0  0  0  0
   -0.3658   -0.7145    0.0000 C   0  0  0  0  0  0  0  2  0  0  0  0
    0.3486   -1.1270    0.0000 C   0  0  0  0  0  0  0  2  0  0  0  0
    1.0631   -0.7145    0.0000 C   0  0  0  0  0  0  0  2  0  0  0  0
    1.0631    0.1105    0.0000 O   0  0  0  0  0  0  0  2  0  0  0  0
    1.7776   -1.1270    0.0000 O   0  0  0  0  0  0  0  2  0  0  0  0
    2.4920   -0.7145    0.0000 Sn  0  0  0  0  0  0  0  2  0  0  0  0
    2.0795    0.0000    0.0000 C   0  0  0  0  0  0  0  2  0  0  0  0
    2.4920    0.7145    0.0000 C   0  0  0  0  0  0  0  2  0  0  0  0
    2.0795    1.4289    0.0000 C   0  0  0  0  0  0  0  2  0  0  0  0
    2.4920    2.1434    0.0000 C   0  0  0  0  0  0  0  2  0  0  0  0
    3.2065   -0.3020    0.0000 C   0  0  0  0  0  0  0  2  0  0  0  0
    3.9210   -0.7145    0.0000 C   0  0  0  0  0  0  0  2  0  0  0  0
    4.6354   -0.3020    0.0000 C   0  0  0  0  0  0  0  2  0  0  0  0
    5.3499   -0.7145    0.0000 C   0  0  0  0  0  0  0  2  0  0  0  0
    2.9045   -1.4289    0.0000 C   0  0  0  0  0  0  0  2  0  0  0  0
    3.7295   -1.4289    0.0000 C   0  0  0  0  0  0  0  2  0  0  0  0
    4.1420   -2.1434    0.0000 C   0  0  0  0  0  0  0  2  0  0  0  0
    4.9670   -2.1434    0.0000 C   0  0  0  0  0  0  0  2  0  0  0  0
  1  2  1  0        0
  2  3  1  0        0
  3  4  1  0        0
  3  5  1  0        0
  5  6  1  0        0
  1  6  1  0        0
  6  7  1  0        0
  7  8  1  0        0
  8  9  1  0        0
  9 10  1  0        0
  9 11  1  0        0
 11 12  1  0        0
  7 12  1  0        0
 12 13  1  0        0
 13 14  1  0        0
 14 15  1  0        0
 15 16  1  0        0
 16 17  1  0        0
 17 18  1  0        0
 18 19  2  0        0
 18 20  1  0        0
 20 21  1  0        0
 21 22  1  0        0
 22 23  1  0        0
 23 24  1  0        0
 24 25  1  0        0
 21 26  1  0        0
 26 27  1  0        0
 27 28  1  0        0
 28 29  1  0        0
 21 30  1  0        0
 30 31  1  0        0
 31 32  1  0        0
 32 33  1  0        0
M  END
>  <CAS RN>
85409172

>  <SMILES>
C1CC(C)CC1C1CC(C)CC1CCCCCC(=O)O[Sn](CCCC)(CCCC)CCCC

>  <Measured or Estimated Log10(mmol/L)>
-4.609351966

$$$$

CDXL12

 17 17  0  0  0  0  0  0  0  0999 V2000
   -1.8093   -0.6265    0.0000 C   0  0  0  0  0  0  0  2  0  0  0  0
   -1.0247   -0.8814    0.0000 C   0  0  0  0  0  0  0  2  0  0  0  0
   -0.7697   -1.6660    0.0000 C   0  0  0  0  0  0  0  2  0  0  0  0
    0.0553   -1.6660    0.0000 S   0  0  0  0  0  0  0  2  0  0  0  0
    0.3102   -0.8814    0.0000 C   0  0  0  0  0  0  0  2  0  0  0  0
    1.0948   -0.6265    0.0000 C   0  0  0  0  0  0  0  2  0  0  0  0
   -0.3572   -0.3965    0.0000 C   0  0  0  0  0  0  0  2  0  0  0  0
   -0.3572    0.4285    0.0000 N   0  0  0  0  0  0  0  2  0  0  0  0
    0.3572    0.8410    0.0000 C   0  0  0  0  0  0  0  2  0  0  0  0
    0.3572    1.6660    0.0000 C   0  0  0  0  0  0  0  2  0  0  0  0
    1.0717    0.4285    0.0000 C   0  0  0  0  0  0  0  2  0  0  0  0
    1.7862    0.8410    0.0000 O   0  0  0  0  0  0  0  2  0  0  0  0
    2.5006    0.4285    0.0000 C   0  0  0  0  0  0  0  2  0  0  0  0
   -1.0717    0.8410    0.0000 C   0  0  0  0  0  0  0  2  0  0  0  0
   -1.0717    1.6660    0.0000 O   0  0  0  0  0  0  0  2  0  0  0  0
   -1.7862    0.4285    0.0000 C   0  0  0  0  0  0  0  2  0  0  0  0
   -2.5006    0.8410    0.0000 Cl  0  0  0  0  0  0  0  2  0  0  0  0
  1  2  1  0        0
  2  3  4  0        0
  3  4  4  0        0
  4  5  4  0        0
  5  6  1  0        0
  5  7  4  0        0
  2  7  4  0        0
  7  8  1  0        0
  8  9  1  0        0
  9 10  1  0        0
  9 11  1  0        0
 11 12  1  0        0
 12 13  1  0        0
  8 14  1  0        0
 14 15  2  0        0
 14 16  1  0        0
 16 17  1  0        0
M  END
>  <CAS RN>
87674688

>  <SMILES>
Cc1csc(C)c1N(C(C)COC)C(=O)CCl

>  <Measured or Estimated Log10(mmol/L)>
-1.23647112

$$$$

CDXL12

 31 33  0  0  0  0  0  0  0  0999 V2000
   -2.9131    0.5082    0.0000 F   0  0  0  0  0  0  0  2  0  0  0  0
   -2.9131   -0.3168    0.0000 C   0  0  0  0  0  0  0  2  0  0  0  0
   -3.6276    0.0957    0.0000 F   0  0  0  0  0  0  0  2  0  0  0  0
   -3.6276   -0.7293    0.0000 F   0  0  0  0  0  0  0  2  0  0  0  0
   -2.1987   -0.7293    0.0000 C   0  0  0  0  0  0  0  2  0  0  0  0
   -2.1987   -1.5543    0.0000 Cl  0  0  0  0  0  0  0  2  0  0  0  0
   -1.4842   -0.3168    0.0000 C   0  0  0  0  0  0  0  2  0  0  0  0
   -0.7697   -0.7293    0.0000 C   0  0  0  0  0  0  0  2  0  0  0  0
   -0.3572   -1.4437    0.0000 C   0  0  0  0  0  0  0  2  0  0  0  0
    0.0553   -2.1582    0.0000 C   0  0  0  0  0  0  0  2  0  0  0  0
   -0.7697   -2.1582    0.0000 C   0  0  0  0  0  0  0  2  0  0  0  0
    0.0553   -0.7293    0.0000 C   0  0  0  0  0  0  0  2  0  0  0  0
    0.7697   -0.3168    0.0000 C   0  0  0  0  0  0  0  2  0  0  0  0
    0.7697    0.5082    0.0000 O   0  0  0  0  0  0  0  2  0  0  0  0
    1.4842   -0.7293    0.0000 O   0  0  0  0  0  0  0  2  0  0  0  0
    2.1987   -0.3168    0.0000 C   0  0  0  0  0  0  0  2  0  0  0  0
    2.9131   -0.7293    0.0000 C   0  0  0  0  0  0  0  2  0  0  0  0
    3.6276   -1.1418    0.0000 N   0  0  0  0  0  0  0  2  0  0  0  0
    2.1987    0.5082    0.0000 C   0  0  0  0  0  0  0  2  0  0  0  0
    1.4842    0.9207    0.0000 C   0  0  0  0  0  0  0  2  0  0  0  0
    1.4842    1.7457    0.0000 C   0  0  0  0  0  0  0  2  0  0  0  0
    0.7697    2.1582    0.0000 O   0  0  0  0  0  0  0  2  0  0  0  0
    0.0553    1.7457    0.0000 C   0  0  0  0  0  0  0  2  0  0  0  0
    0.0553    0.9207    0.0000 C   0  0  0  0  0  0  0  2  0  0  0  0
   -0.6592    0.5082    0.0000 C   0  0  0  0  0  0  0  2  0  0  0  0
   -1.3737    0.9207    0.0000 C   0  0  0  0  0  0  0  2  0  0  0  0
   -1.3737    1.7457    0.0000 C   0  0  0  0  0  0  0  2  0  0  0  0
   -0.6592    2.1582    0.0000 C   0  0  0  0  0  0  0  2  0  0  0  0
    2.1987    2.1582    0.0000 C   0  0  0  0  0  0  0  2  0  0  0  0
    2.9131    1.7457    0.0000 C   0  0  0  0  0  0  0  2  0  0  0  0
    2.9131    0.9207    0.0000 C   0  0  0  0  0  0  0  2  0  0  0  0
  1  2  1  0        0
  2  3  1  0        0
  2  4  1  0        0
  2  5  1  0        0
  5  6  1  0        0
  5  7  2  0        0
  7  8  1  0        0
  8  9  1  0        0
  9 10  1  0        0
  9 11  1  0        0
  9 12  1  0        0
  8 12  1  0        0
 12 13  1  0        0
 13 14  2  0        0
 13 15  1  0        0
 15 16  1  0        0
 16 17  1  0        0
 17 18  3  0        0
 16 19  1  0        0
 19 20  4  0        0
 20 21  4  0        0
 21 22  1  0        0
 22 23  1  0        0
 23 24  4  0        0
 24 25  4  0        0
 25 26  4  0        0
 26 27  4  0        0
 27 28  4  0        0
 23 28  4  0        0
 21 29  4  0        0
 29 30  4  0        0
 30 31  4  0        0
 19 31  4  0        0
M  END
>  <CAS RN>
91465086

>  <SMILES>
FC(F)(F)C(Cl)=CC1C(C)(C)C1C(=O)OC(C#N)c1cc(Oc2ccccc2)ccc1

>  <Measured or Estimated Log10(mmol/L)>
-5.530098676

$$$$

CDXL12

 16 15  0  0  0  0  0  0  0  0999 V2000
    0.0000    1.4437    0.0000 C   0  0  0  0  0  0  0  2  0  0  0  0
    0.0000    0.6187    0.0000 C   0  0  0  0  0  0  0  2  0  0  0  0
    0.7145    0.2062    0.0000 C   0  0  0  0  0  0  0  2  0  0  0  0
   -0.7145    0.2062    0.0000 C   0  0  0  0  0  0  0  2  0  0  0  0
   -0.7145   -0.6188    0.0000 C   0  0  0  0  0  0  0  2  0  0  0  0
   -0.7145   -1.4437    0.0000 C   0  0  0  0  0  0  0  2  0  0  0  0
   -1.4289   -1.0313    0.0000 O   0  0  0  0  0  0  0  2  0  0  0  0
   -2.1434   -0.6188    0.0000 C   0  0  0  0  0  0  0  2  0  0  0  0
   -2.1434    0.2062    0.0000 O   0  0  0  0  0  0  0  2  0  0  0  0
   -2.8579   -1.0313    0.0000 C   0  0  0  0  0  0  0  2  0  0  0  0
    0.0000   -1.0313    0.0000 C   0  0  0  0  0  0  0  2  0  0  0  0
    0.7145   -0.6188    0.0000 C   0  0  0  0  0  0  0  2  0  0  0  0
    1.4289   -1.0313    0.0000 C   0  0  0  0  0  0  0  2  0  0  0  0
    2.1434   -0.6188    0.0000 C   0  0  0  0  0  0  0  2  0  0  0  0
    2.1434    0.2062    0.0000 C   0  0  0  0  0  0  0  2  0  0  0  0
    2.8579   -1.0313    0.0000 C   0  0  0  0  0  0  0  2  0  0  0  0
  1  2  2  0        0
  2  3  1  0        0
  2  4  1  0        0
  4  5  1  0        0
  5  6  1  0        0
  5  7  1  0        0
  7  8  1  0        0
  8  9  2  0        0
  8 10  1  0        0
  5 11  1  0        0
 11 12  1  0        0
 12 13  1  0        0
 13 14  2  0        0
 14 15  1  0        0
 14 16  1  0        0
M  END
>  <CAS RN>
94201351

>  <SMILES>
C=C(C)CC(C)(OC(=O)C)CCC=C(C)C

>  <Measured or Estimated Log10(mmol/L)>
-0.829776366

$$$$

CDXL12

 17 18  0  0  0  0  0  0  0  0999 V2000
    2.4390    0.0623    0.0000 Cl  0  0  0  0  0  0  0  2  0  0  0  0
    1.7246   -0.3502    0.0000 C   0  0  0  0  0  0  0  2  0  0  0  0
    1.7246   -1.1752    0.0000 C   0  0  0  0  0  0  0  2  0  0  0  0
    1.0101   -1.5877    0.0000 C   0  0  0  0  0  0  0  2  0  0  0  0
    0.2956   -1.1752    0.0000 C   0  0  0  0  0  0  0  2  0  0  0  0
   -0.4189   -1.5877    0.0000 C   0  0  0  0  0  0  0  2  0  0  0  0
   -1.1333   -1.1752    0.0000 N   0  0  0  0  0  0  0  2  0  0  0  0
   -1.8870   -1.5107    0.0000 C   0  0  0  0  0  0  0  2  0  0  0  0
   -2.4390   -0.8976    0.0000 C   0  0  0  0  0  0  0  2  0  0  0  0
   -2.0265   -0.1832    0.0000 N   0  0  0  0  0  0  0  2  0  0  0  0
   -1.2196   -0.3547    0.0000 C   0  0  0  0  0  0  0  2  0  0  0  0
   -0.6065    0.1973    0.0000 N   0  0  0  0  0  0  0  2  0  0  0  0
   -0.7780    1.0043    0.0000 N   0  0  0  0  0  0  0  2  0  0  0  0
   -0.1946    1.5877    0.0000 O   0  0  0  0  0  0  0  2  0  0  0  0
   -1.5749    1.2178    0.0000 O   0  0  0  0  0  0  0  2  0  0  0  0
    0.2956   -0.3502    0.0000 C   0  0  0  0  0  0  0  2  0  0  0  0
    1.0101    0.0623    0.0000 N   0  0  0  0  0  0  0  2  0  0  0  0
  1  2  1  0        0
  2  3  4  0        0
  3  4  4  0        0
  4  5  4  0        0
  5  6  1  0        0
  6  7  1  0        0
  7  8  1  0        0
  8  9  1  0        0
  9 10  1  0        0
 10 11  1  0        0
  7 11  1  0        0
 11 12  2  0        0
 12 13  1  0        0
 13 14  2  0        0
 13 15  2  0        0
  5 16  4  0        0
 16 17  4  0        0
  2 17  4  0        0
M  END
>  <CAS RN>
105827789

>  <SMILES>
Clc1ccc(CN2CCNC2=NN(=O)=O)cn1

>  <Measured or Estimated Log10(mmol/L)>
-1.39063793

$$$$

CDXL12

 19 19  0  0  0  0  0  0  0  0999 V2000
    0.0000   -0.8250    0.0000 C   0  0  0  0  0  0  0  2  0  0  0  0
    0.0000   -1.6500    0.0000 N   0  0  0  0  0  0  0  2  0  0  0  0
   -0.7145   -0.4125    0.0000 C   0  0  0  0  0  0  0  2  0  0  0  0
   -1.4289   -0.8250    0.0000 C   0  0  0  0  0  0  0  2  0  0  0  0
   -0.7145    0.4125    0.0000 C   0  0  0  0  0  0  0  2  0  0  0  0
   -1.4289    0.8250    0.0000 N   0  0  0  0  0  0  0  2  0  0  0  0
   -1.4289    1.6500    0.0000 O   0  0  0  0  0  0  0  2  0  0  0  0
   -2.1434    0.4125    0.0000 O   0  0  0  0  0  0  0  2  0  0  0  0
    0.0000    0.8250    0.0000 C   0  0  0  0  0  0  0  2  0  0  0  0
    0.0000    1.6500    0.0000 C   0  0  0  0  0  0  0  2  0  0  0  0
    0.7145    0.4125    0.0000 C   0  0  0  0  0  0  0  2  0  0  0  0
    1.4289    0.8250    0.0000 N   0  0  0  0  0  0  0  2  0  0  0  0
    1.4289    1.6500    0.0000 O   0  0  0  0  0  0  0  2  0  0  0  0
    2.1434    0.4125    0.0000 O   0  0  0  0  0  0  0  2  0  0  0  0
    0.7145   -0.4125    0.0000 C   0  0  0  0  0  0  0  2  0  0  0  0
    1.4289   -0.8250    0.0000 C   0  0  0  0  0  0  0  2  0  0  0  0
    2.1434   -1.2375    0.0000 C   0  0  0  0  0  0  0  2  0  0  0  0
    1.4289   -1.6500    0.0000 C   0  0  0  0  0  0  0  2  0  0  0  0
    2.1434   -0.4125    0.0000 C   0  0  0  0  0  0  0  2  0  0  0  0
  1  2  1  0        0
  1  3  4  0        0
  3  4  1  0        0
  3  5  4  0        0
  5  6  1  0        0
  6  7  2  0        0
  6  8  2  0        0
  5  9  4  0        0
  9 10  1  0        0
  9 11  4  0        0
 11 12  1  0        0
 12 13  2  0        0
 12 14  2  0        0
 11 15  4  0        0
  1 15  4  0        0
 15 16  1  0        0
 16 17  1  0        0
 16 18  1  0        0
 16 19  1  0        0
M  END
>  <CAS RN>
107342676

>  <SMILES>
c1(N)c(C)c(N(=O)=O)c(C)c(N(=O)=O)c1C(C)(C)C

>  <Measured or Estimated Log10(mmol/L)>
-2.397590801

$$$$

CDXL12

 14 13  0  0  0  0  0  0  0  0999 V2000
    3.9296   -0.2063    0.0000 C   0  0  0  0  0  0  0  2  0  0  0  0
    3.2151    0.2062    0.0000 C   0  0  0  0  0  0  0  2  0  0  0  0
    2.5006   -0.2063    0.0000 C   0  0  0  0  0  0  0  2  0  0  0  0
    1.7862    0.2062    0.0000 C   0  0  0  0  0  0  0  2  0  0  0  0
    1.0717   -0.2063    0.0000 C   0  0  0  0  0  0  0  2  0  0  0  0
    0.3572    0.2062    0.0000 C   0  0  0  0  0  0  0  2  0  0  0  0
   -0.3572   -0.2063    0.0000 C   0  0  0  0  0  0  0  2  0  0  0  0
   -1.0717    0.2062    0.0000 C   0  0  0  0  0  0  0  2  0  0  0  0
   -1.7862   -0.2063    0.0000 O   0  0  0  0  0  0  0  2  0  0  0  0
   -2.5006    0.2062    0.0000 C   0  0  0  0  0  0  0  2  0  0  0  0
   -2.5006    1.0312    0.0000 O   0  0  0  0  0  0  0  2  0  0  0  0
   -3.2151   -0.2063    0.0000 C   0  0  0  0  0  0  0  2  0  0  0  0
   -3.2151   -1.0312    0.0000 O   0  0  0  0  0  0  0  2  0  0  0  0
   -3.9296    0.2062    0.0000 C   0  0  0  0  0  0  0  2  0  0  0  0
  1  2  1  0        0
  2  3  1  0        0
  3  4  1  0        0
  4  5  1  0        0
  5  6  1  0        0
  6  7  1  0        0
  7  8  1  0        0
  8  9  1  0        0
  9 10  1  0        0
 10 11  2  0        0
 10 12  1  0        0
 12 13  1  0        0
 12 14  1  0        0
M  END
>  <CAS RN>
129171900

>  <SMILES>
CCCCCCCCOC(=O)C(O)C

>  <Measured or Estimated Log10(mmol/L)>
-0.703923002

$$$$

CDXL12

 17 18  0  0  0  0  0  0  0  0999 V2000
    1.0101    0.0623    0.0000 N   0  0  0  0  0  0  0  2  0  0  0  0
    1.7246   -0.3502    0.0000 C   0  0  0  0  0  0  0  2  0  0  0  0
    1.7246   -1.1752    0.0000 C   0  0  0  0  0  0  0  2  0  0  0  0
    1.0101   -1.5877    0.0000 C   0  0  0  0  0  0  0  2  0  0  0  0
    0.2956   -1.1752    0.0000 C   0  0  0  0  0  0  0  2  0  0  0  0
    0.2956   -0.3502    0.0000 C   0  0  0  0  0  0  0  2  0  0  0  0
   -0.4189   -1.5877    0.0000 C   0  0  0  0  0  0  0  2  0  0  0  0
   -1.1333   -1.1752    0.0000 N   0  0  0  0  0  0  0  2  0  0  0  0
   -1.2196   -0.3547    0.0000 C   0  0  0  0  0  0  0  2  0  0  0  0
   -2.0265   -0.1832    0.0000 N   0  0  0  0  0  0  0  2  0  0  0  0
   -2.4390   -0.8976    0.0000 C   0  0  0  0  0  0  0  2  0  0  0  0
   -1.8870   -1.5107    0.0000 C   0  0  0  0  0  0  0  2  0  0  0  0
   -0.6065    0.1973    0.0000 N   0  0  0  0  0  0  0  2  0  0  0  0
   -0.7780    1.0043    0.0000 N   0  0  0  0  0  0  0  2  0  0  0  0
   -0.1946    1.5877    0.0000 O   0  0  0  0  0  0  0  2  0  0  0  0
   -1.5749    1.2178    0.0000 O   0  0  0  0  0  0  0  2  0  0  0  0
    2.4390    0.0623    0.0000 Cl  0  0  0  0  0  0  0  2  0  0  0  0
  1  2  4  0        0
  2  3  4  0        0
  3  4  4  0        0
  4  5  4  0        0
  5  6  4  0        0
  1  6  4  0        0
  5  7  1  0        0
  7  8  1  0        0
  8  9  1  0        0
  9 10  2  0        0
 10 11  1  0        0
 11 12  1  0        0
  8 12  1  0        0
  9 13  1  0        0
 13 14  1  0        0
 14 15  2  0        0
 14 16  2  0        0
  2 17  1  0        0
M  END
>  <CAS RN>
138261413

>  <SMILES>
n1c(ccc(c1)CN1/C(=N\CC1)/NN(=O)=O)Cl

>  <Measured or Estimated Log10(mmol/L)>
-0.48381765

$$$$

CDXL12

 14 13  0  0  0  0  0  0  0  0999 V2000
    3.2151    0.0000    0.0000 C   0  0  0  0  0  0  0  2  0  0  0  0
    2.5006    0.4125    0.0000 C   0  0  0  0  0  0  0  2  0  0  0  0
    1.7862    0.0000    0.0000 C   0  0  0  0  0  0  0  2  0  0  0  0
    1.0717    0.4125    0.0000 C   0  0  0  0  0  0  0  2  0  0  0  0
    0.3572    0.0000    0.0000 C   0  0  0  0  0  0  0  2  0  0  0  0
    0.3572   -0.8250    0.0000 C   0  0  0  0  0  0  0  2  0  0  0  0
    1.0717   -1.2375    0.0000 C   0  0  0  0  0  0  0  2  0  0  0  0
   -0.3572    0.4125    0.0000 C   0  0  0  0  0  0  0  2  0  0  0  0
   -1.0717    0.0000    0.0000 O   0  0  0  0  0  0  0  2  0  0  0  0
   -1.7862    0.4125    0.0000 C   0  0  0  0  0  0  0  2  0  0  0  0
   -1.7862    1.2375    0.0000 O   0  0  0  0  0  0  0  2  0  0  0  0
   -2.5006    0.0000    0.0000 C   0  0  0  0  0  0  0  2  0  0  0  0
   -2.5006   -0.8250    0.0000 O   0  0  0  0  0  0  0  2  0  0  0  0
   -3.2151    0.4125    0.0000 C   0  0  0  0  0  0  0  2  0  0  0  0
  1  2  1  0        0
  2  3  1  0        0
  3  4  1  0        0
  4  5  1  0        0
  5  6  1  0        0
  6  7  1  0        0
  5  8  1  0        0
  8  9  1  0        0
  9 10  1  0        0
 10 11  2  0        0
 10 12  1  0        0
 12 13  1  0        0
 12 14  1  0        0
M  END
>  <CAS RN>
186817801

>  <SMILES>
CCCCC(CC)COC(=O)C(O)C

>  <Measured or Estimated Log10(mmol/L)>
-0.386904901

$$$$

CDXL12

 34 36  0  0  0  0  0  0  0  0999 V2000
    2.0142    2.3579    0.0000 C   0  0  0  0  0  0  0  2  0  0  0  0
    1.3468    2.8429    0.0000 C   0  0  0  0  0  0  0  2  0  0  0  0
    0.6794    2.3579    0.0000 C   0  0  0  0  0  0  0  2  0  0  0  0
    0.9343    1.5733    0.0000 C   0  0  0  0  0  0  0  2  0  0  0  0
    0.4494    0.9059    0.0000 C   0  0  0  0  0  0  0  2  0  0  0  0
   -0.3711    0.9921    0.0000 N   0  0  0  0  0  0  0  2  0  0  0  0
   -0.8560    0.3247    0.0000 N   0  0  0  0  0  0  0  2  0  0  0  0
   -1.6810    0.3247    0.0000 C   0  0  0  0  0  0  0  2  0  0  0  0
   -2.1660    0.9921    0.0000 O   0  0  0  0  0  0  0  2  0  0  0  0
   -1.9360   -0.4599    0.0000 O   0  0  0  0  0  0  0  2  0  0  0  0
   -1.2685   -0.9449    0.0000 C   0  0  0  0  0  0  0  2  0  0  0  0
   -1.2685   -1.7699    0.0000 C   0  0  0  0  0  0  0  2  0  0  0  0
   -1.9830   -2.1824    0.0000 N   0  0  0  0  0  0  0  2  0  0  0  0
   -1.9830   -1.3574    0.0000 H   0  0  0  0  0  0  0  2  0  0  0  0
   -1.2685   -2.5949    0.0000 O   0  0  0  0  0  0  0  2  0  0  0  0
   -0.5541   -2.1824    0.0000 C   0  0  0  0  0  0  0  2  0  0  0  0
   -0.5541   -1.3574    0.0000 O   0  0  0  0  0  0  0  2  0  0  0  0
    0.1604   -2.5949    0.0000 C   0  0  0  0  0  0  0  2  0  0  0  0
    0.1604   -3.4199    0.0000 O   0  0  0  0  0  0  0  2  0  0  0  0
    0.8749   -2.1824    0.0000 C   0  0  0  0  0  0  0  2  0  0  0  0
    0.8749   -1.3574    0.0000 O   0  0  0  0  0  0  0  2  0  0  0  0
    1.5893   -2.5949    0.0000 C   0  0  0  0  0  0  0  2  0  0  0  0
    1.5893   -3.4199    0.0000 O   0  0  0  0  0  0  0  2  0  0  0  0
    2.3038   -2.1824    0.0000 O   0  0  0  0  0  0  0  2  0  0  0  0
   -1.9830   -3.0074    0.0000 C   0  0  0  0  0  0  0  2  0  0  0  0
   -2.6975   -3.4199    0.0000 C   0  0  0  0  0  0  0  2  0  0  0  0
   -3.4119   -3.0074    0.0000 O   0  0  0  0  0  0  0  2  0  0  0  0
   -3.4119   -2.1824    0.0000 C   0  0  0  0  0  0  0  2  0  0  0  0
   -2.6975   -1.7699    0.0000 C   0  0  0  0  0  0  0  2  0  0  0  0
   -0.6011   -0.4599    0.0000 C   0  0  0  0  0  0  0  2  0  0  0  0
    1.7593    1.5733    0.0000 O   0  0  0  0  0  0  0  2  0  0  0  0
    2.7989    2.6129    0.0000 N   0  0  0  0  0  0  0  2  0  0  0  0
    2.9704    3.4199    0.0000 O   0  0  0  0  0  0  0  2  0  0  0  0
    3.4119    2.0609    0.0000 O   0  0  0  0  0  0  0  2  0  0  0  0
  1  2  4  0        0
  2  3  4  0        0
  3  4  4  0        0
  4  5  1  0        0
  5  6  2  0        0
  6  7  1  0        0
  7  8  1  0        0
  8  9  2  0        0
  8 10  1  0        0
 10 11  1  0        0
 11 12  1  0        0
 12 13  1  0        0
 13 14  1  0        0
 13 15  1  0        0
 15 16  1  0        0
 16 17  2  0        0
 16 18  1  0        0
 18 19  1  0        0
 18 20  1  0        0
 20 21  1  0        0
 20 22  1  0        0
 22 23  2  0        0
 22 24  1  0        0
 13 25  1  0        0
 25 26  1  0        0
 26 27  1  0        0
 27 28  1  0        0
 28 29  1  0        0
 13 29  1  0        0
 11 30  1  0        0
  7 30  1  0        0
  4 31  4  0        0
  1 31  4  0        0
  1 32  1  0        0
 32 33  2  0        0
 32 34  2  0        0
M  END
>  <CAS RN>
NA

>  <SMILES>
c1(ccc(C=NN2C(=O)OC(CN3([H])(OC(=O)C(O)C(O)C(=O)O)CCOCC3)C2)o1)N(=O)=O

>  <Measured or Estimated Log10(mmol/L)>
-0.667525274

$$$$

CDXL12

 17 17  0  0  0  0  0  0  0  0999 V2000
    0.3572   -0.8250    0.0000 C   0  0  0  0  0  0  0  2  0  0  0  0
    0.3572   -1.6500    0.0000 N   0  0  0  0  0  0  0  2  0  0  0  0
    1.0717   -0.4125    0.0000 C   0  0  0  0  0  0  0  2  0  0  0  0
    1.7862   -0.8250    0.0000 C   0  0  0  0  0  0  0  2  0  0  0  0
    1.0717    0.4125    0.0000 C   0  0  0  0  0  0  0  2  0  0  0  0
    1.7862    0.8250    0.0000 N   0  0  0  0  0  0  0  2  0  0  0  0
    0.3572    0.8250    0.0000 C   0  0  0  0  0  0  0  2  0  0  0  0
    0.3572    1.6500    0.0000 C   0  0  0  0  0  0  0  2  0  0  0  0
   -0.3572    0.4125    0.0000 C   0  0  0  0  0  0  0  2  0  0  0  0
   -1.0717    0.8250    0.0000 N   0  0  0  0  0  0  0  2  0  0  0  0
   -1.0717    1.6500    0.0000 O   0  0  0  0  0  0  0  2  0  0  0  0
   -1.7862    0.4125    0.0000 O   0  0  0  0  0  0  0  2  0  0  0  0
   -0.3572   -0.4125    0.0000 C   0  0  0  0  0  0  0  2  0  0  0  0
   -1.0717   -0.8250    0.0000 C   0  0  0  0  0  0  0  2  0  0  0  0
   -1.0717   -1.6500    0.0000 C   0  0  0  0  0  0  0  2  0  0  0  0
   -1.7862   -1.2375    0.0000 C   0  0  0  0  0  0  0  2  0  0  0  0
   -1.7862   -0.4125    0.0000 C   0  0  0  0  0  0  0  2  0  0  0  0
  1  2  1  0        0
  1  3  4  0        0
  3  4  1  0        0
  3  5  4  0        0
  5  6  1  0        0
  5  7  4  0        0
  7  8  1  0        0
  7  9  4  0        0
  9 10  1  0        0
 10 11  2  0        0
 10 12  2  0        0
  9 13  4  0        0
  1 13  4  0        0
 13 14  1  0        0
 14 15  1  0        0
 14 16  1  0        0
 14 17  1  0        0
M  END
>  <CAS RN>
NA

>  <SMILES>
c1(N)c(C)c(N)c(C)c(N(=O)=O)c1C(C)(C)C

>  <Measured or Estimated Log10(mmol/L)>
-1.0079473

$$$$

CDXL12

 15 15  0  0  0  0  0  0  0  0999 V2000
    0.3572   -0.4125    0.0000 C   0  0  0  0  0  0  0  2  0  0  0  0
    1.0717   -0.8250    0.0000 N   0  0  0  0  0  0  0  2  0  0  0  0
   -0.3572   -0.8250    0.0000 C   0  0  0  0  0  0  0  2  0  0  0  0
   -0.3572   -1.6500    0.0000 C   0  0  0  0  0  0  0  2  0  0  0  0
   -1.0717   -0.4125    0.0000 C   0  0  0  0  0  0  0  2  0  0  0  0
   -1.7862   -0.8250    0.0000 N   0  0  0  0  0  0  0  2  0  0  0  0
   -1.0717    0.4125    0.0000 C   0  0  0  0  0  0  0  2  0  0  0  0
   -1.7862    0.8250    0.0000 C   0  0  0  0  0  0  0  2  0  0  0  0
   -0.3572    0.8250    0.0000 C   0  0  0  0  0  0  0  2  0  0  0  0
   -0.3572    1.6500    0.0000 N   0  0  0  0  0  0  0  2  0  0  0  0
    0.3572    0.4125    0.0000 C   0  0  0  0  0  0  0  2  0  0  0  0
    1.0717    0.8250    0.0000 C   0  0  0  0  0  0  0  2  0  0  0  0
    1.0717    1.6500    0.0000 C   0  0  0  0  0  0  0  2  0  0  0  0
    1.7862    1.2375    0.0000 C   0  0  0  0  0  0  0  2  0  0  0  0
    1.7862    0.4125    0.0000 C   0  0  0  0  0  0  0  2  0  0  0  0
  1  2  1  0        0
  1  3  4  0        0
  3  4  1  0        0
  3  5  4  0        0
  5  6  1  0        0
  5  7  4  0        0
  7  8  1  0        0
  7  9  4  0        0
  9 10  1  0        0
  9 11  4  0        0
  1 11  4  0        0
 11 12  1  0        0
 12 13  1  0        0
 12 14  1  0        0
 12 15  1  0        0
M  END
>  <CAS RN>
NA

>  <SMILES>
c1(N)c(C)c(N)c(C)c(N)c1C(C)(C)C

>  <Measured or Estimated Log10(mmol/L)>
-0.547265961

$$$$

CDXL12

 24 24  0  0  0  0  0  0  0  0999 V2000
    3.2151    0.4678    0.0000 C   0  0  0  0  0  0  0  2  0  0  0  0
    3.9296    0.8803    0.0000 C   0  0  0  0  0  0  0  2  0  0  0  0
    4.6441    0.4678    0.0000 C   0  0  0  0  0  0  0  2  0  0  0  0
    5.3585    0.8803    0.0000 S   0  0  0  0  0  0  0  2  0  0  0  0
    5.7710    0.1658    0.0000 O   0  0  0  0  0  0  0  2  0  0  0  0
    4.9460    1.5947    0.0000 O   0  0  0  0  0  0  0  2  0  0  0  0
    6.0730    1.2928    0.0000 O   0  0  0  0  0  0  0  2  0  0  0  0
    4.6441   -0.3572    0.0000 C   0  0  0  0  0  0  0  2  0  0  0  0
    3.9296   -0.7697    0.0000 C   0  0  0  0  0  0  0  2  0  0  0  0
    3.2151   -0.3572    0.0000 C   0  0  0  0  0  0  0  2  0  0  0  0
    2.5006   -0.7697    0.0000 C   0  0  0  0  0  0  0  2  0  0  0  0
    2.5006   -1.5947    0.0000 C   0  0  0  0  0  0  0  2  0  0  0  0
    1.7862   -0.3572    0.0000 C   0  0  0  0  0  0  0  2  0  0  0  0
    1.0717   -0.7697    0.0000 C   0  0  0  0  0  0  0  2  0  0  0  0
    0.3572   -0.3572    0.0000 C   0  0  0  0  0  0  0  2  0  0  0  0
   -0.3572   -0.7697    0.0000 C   0  0  0  0  0  0  0  2  0  0  0  0
   -1.0717   -0.3572    0.0000 C   0  0  0  0  0  0  0  2  0  0  0  0
   -1.7862   -0.7697    0.0000 C   0  0  0  0  0  0  0  2  0  0  0  0
   -2.5006   -0.3572    0.0000 C   0  0  0  0  0  0  0  2  0  0  0  0
   -3.2151   -0.7697    0.0000 C   0  0  0  0  0  0  0  2  0  0  0  0
   -3.9296   -0.3572    0.0000 C   0  0  0  0  0  0  0  2  0  0  0  0
   -4.6441   -0.7697    0.0000 C   0  0  0  0  0  0  0  2  0  0  0  0
   -5.3585   -0.3572    0.0000 C   0  0  0  0  0  0  0  2  0  0  0  0
   -6.0730   -0.7697    0.0000 C   0  0  0  0  0  0  0  2  0  0  0  0
  1  2  4  0        0
  2  3  4  0        0
  3  4  1  0        0
  4  5  2  0        0
  4  6  2  0        0
  4  7  1  0        0
  3  8  4  0        0
  8  9  4  0        0
  9 10  4  0        0
  1 10  4  0        0
 10 11  1  0        0
 11 12  1  0        0
 11 13  1  0        0
 13 14  1  0        0
 14 15  1  0        0
 15 16  1  0        0
 16 17  1  0        0
 17 18  1  0        0
 18 19  1  0        0
 19 20  1  0        0
 20 21  1  0        0
 21 22  1  0        0
 22 23  1  0        0
 23 24  1  0        0
M  END
>  <CAS RN>
NA

>  <SMILES>
c1cc(S(=O)(=O)O)ccc1C(C)CCCCCCCCCCCC

>  <Measured or Estimated Log10(mmol/L)>
-2.720137573

$$$$

CDXL12

 21 21  0  0  0  0  0  0  0  0999 V2000
   -1.4289   -0.6187    0.0000 C   0  0  0  0  0  0  0  2  0  0  0  0
   -1.4289    0.2063    0.0000 C   0  0  0  0  0  0  0  2  0  0  0  0
   -0.7145    0.6188    0.0000 C   0  0  0  0  0  0  0  2  0  0  0  0
   -0.7145    1.4438    0.0000 S   0  0  0  0  0  0  0  2  0  0  0  0
    0.1105    1.4438    0.0000 O   0  0  0  0  0  0  0  2  0  0  0  0
   -1.5395    1.4438    0.0000 O   0  0  0  0  0  0  0  2  0  0  0  0
   -0.7145    2.2687    0.0000 O   0  0  0  0  0  0  0  2  0  0  0  0
    0.0000    0.2062    0.0000 C   0  0  0  0  0  0  0  2  0  0  0  0
    0.0000   -0.6188    0.0000 C   0  0  0  0  0  0  0  2  0  0  0  0
   -0.7145   -1.0313    0.0000 C   0  0  0  0  0  0  0  2  0  0  0  0
   -0.7145   -1.8563    0.0000 C   0  0  0  0  0  0  0  2  0  0  0  0
    0.0000   -2.2687    0.0000 C   0  0  0  0  0  0  0  2  0  0  0  0
    0.7145   -1.8563    0.0000 C   0  0  0  0  0  0  0  2  0  0  0  0
    1.4289   -2.2687    0.0000 C   0  0  0  0  0  0  0  2  0  0  0  0
    2.1434   -1.8563    0.0000 C   0  0  0  0  0  0  0  2  0  0  0  0
    2.8579   -2.2687    0.0000 C   0  0  0  0  0  0  0  2  0  0  0  0
    3.5724   -1.8563    0.0000 C   0  0  0  0  0  0  0  2  0  0  0  0
   -1.4289   -2.2687    0.0000 C   0  0  0  0  0  0  0  2  0  0  0  0
   -2.1434   -1.8562    0.0000 C   0  0  0  0  0  0  0  2  0  0  0  0
   -2.8579   -2.2687    0.0000 C   0  0  0  0  0  0  0  2  0  0  0  0
   -3.5724   -1.8562    0.0000 C   0  0  0  0  0  0  0  2  0  0  0  0
  1  2  4  0        0
  2  3  4  0        0
  3  4  1  0        0
  4  5  2  0        0
  4  6  2  0        0
  4  7  1  0        0
  3  8  4  0        0
  8  9  4  0        0
  9 10  4  0        0
  1 10  4  0        0
 10 11  1  0        0
 11 12  1  0        0
 12 13  1  0        0
 13 14  1  0        0
 14 15  1  0        0
 15 16  1  0        0
 16 17  1  0        0
 11 18  1  0        0
 18 19  1  0        0
 19 20  1  0        0
 20 21  1  0        0
M  END
>  <CAS RN>
NA

>  <SMILES>
c1cc(S(=O)(=O)O)ccc1C(CCCCCC)CCCC

>  <Measured or Estimated Log10(mmol/L)>
-1.352652632

$$$$

CDXL12

 22 22  0  0  0  0  0  0  0  0999 V2000
   -1.0717   -0.6187    0.0000 C   0  0  0  0  0  0  0  2  0  0  0  0
   -1.0717    0.2063    0.0000 C   0  0  0  0  0  0  0  2  0  0  0  0
   -0.3572    0.6188    0.0000 C   0  0  0  0  0  0  0  2  0  0  0  0
   -0.3572    1.4438    0.0000 S   0  0  0  0  0  0  0  2  0  0  0  0
    0.4678    1.4438    0.0000 O   0  0  0  0  0  0  0  2  0  0  0  0
   -1.1822    1.4438    0.0000 O   0  0  0  0  0  0  0  2  0  0  0  0
   -0.3572    2.2687    0.0000 O   0  0  0  0  0  0  0  2  0  0  0  0
    0.3572    0.2062    0.0000 C   0  0  0  0  0  0  0  2  0  0  0  0
    0.3572   -0.6188    0.0000 C   0  0  0  0  0  0  0  2  0  0  0  0
   -0.3572   -1.0313    0.0000 C   0  0  0  0  0  0  0  2  0  0  0  0
   -0.3572   -1.8563    0.0000 C   0  0  0  0  0  0  0  2  0  0  0  0
    0.3572   -2.2687    0.0000 C   0  0  0  0  0  0  0  2  0  0  0  0
    1.0717   -1.8563    0.0000 C   0  0  0  0  0  0  0  2  0  0  0  0
    1.7862   -2.2687    0.0000 C   0  0  0  0  0  0  0  2  0  0  0  0
    2.5006   -1.8563    0.0000 C   0  0  0  0  0  0  0  2  0  0  0  0
    3.2151   -2.2687    0.0000 C   0  0  0  0  0  0  0  2  0  0  0  0
    3.9296   -1.8563    0.0000 C   0  0  0  0  0  0  0  2  0  0  0  0
   -1.0717   -2.2687    0.0000 C   0  0  0  0  0  0  0  2  0  0  0  0
   -1.7862   -1.8562    0.0000 C   0  0  0  0  0  0  0  2  0  0  0  0
   -2.5006   -2.2687    0.0000 C   0  0  0  0  0  0  0  2  0  0  0  0
   -3.2151   -1.8562    0.0000 C   0  0  0  0  0  0  0  2  0  0  0  0
   -3.9296   -2.2687    0.0000 C   0  0  0  0  0  0  0  2  0  0  0  0
  1  2  4  0        0
  2  3  4  0        0
  3  4  1  0        0
  4  5  2  0        0
  4  6  2  0        0
  4  7  1  0        0
  3  8  4  0        0
  8  9  4  0        0
  9 10  4  0        0
  1 10  4  0        0
 10 11  1  0        0
 11 12  1  0        0
 12 13  1  0        0
 13 14  1  0        0
 14 15  1  0        0
 15 16  1  0        0
 16 17  1  0        0
 11 18  1  0        0
 18 19  1  0        0
 19 20  1  0        0
 20 21  1  0        0
 21 22  1  0        0
M  END
>  <CAS RN>
NA

>  <SMILES>
c1cc(S(=O)(=O)O)ccc1C(CCCCCC)CCCCC

>  <Measured or Estimated Log10(mmol/L)>
-1.527793745

$$$$

CDXL12

 23 23  0  0  0  0  0  0  0  0999 V2000
   -0.7145   -0.6187    0.0000 C   0  0  0  0  0  0  0  2  0  0  0  0
   -0.7145    0.2063    0.0000 C   0  0  0  0  0  0  0  2  0  0  0  0
    0.0000    0.6188    0.0000 C   0  0  0  0  0  0  0  2  0  0  0  0
    0.0000    1.4438    0.0000 S   0  0  0  0  0  0  0  2  0  0  0  0
    0.8250    1.4438    0.0000 O   0  0  0  0  0  0  0  2  0  0  0  0
   -0.8250    1.4438    0.0000 O   0  0  0  0  0  0  0  2  0  0  0  0
    0.0000    2.2687    0.0000 O   0  0  0  0  0  0  0  2  0  0  0  0
    0.7145    0.2062    0.0000 C   0  0  0  0  0  0  0  2  0  0  0  0
    0.7145   -0.6188    0.0000 C   0  0  0  0  0  0  0  2  0  0  0  0
    0.0000   -1.0313    0.0000 C   0  0  0  0  0  0  0  2  0  0  0  0
    0.0000   -1.8563    0.0000 C   0  0  0  0  0  0  0  2  0  0  0  0
    0.7145   -2.2687    0.0000 C   0  0  0  0  0  0  0  2  0  0  0  0
    1.4289   -1.8563    0.0000 C   0  0  0  0  0  0  0  2  0  0  0  0
    2.1434   -2.2687    0.0000 C   0  0  0  0  0  0  0  2  0  0  0  0
    2.8579   -1.8563    0.0000 C   0  0  0  0  0  0  0  2  0  0  0  0
    3.5724   -2.2687    0.0000 C   0  0  0  0  0  0  0  2  0  0  0  0
    4.2868   -1.8563    0.0000 C   0  0  0  0  0  0  0  2  0  0  0  0
   -0.7145   -2.2687    0.0000 C   0  0  0  0  0  0  0  2  0  0  0  0
   -1.4289   -1.8562    0.0000 C   0  0  0  0  0  0  0  2  0  0  0  0
   -2.1434   -2.2687    0.0000 C   0  0  0  0  0  0  0  2  0  0  0  0
   -2.8579   -1.8562    0.0000 C   0  0  0  0  0  0  0  2  0  0  0  0
   -3.5724   -2.2687    0.0000 C   0  0  0  0  0  0  0  2  0  0  0  0
   -4.2868   -1.8562    0.0000 C   0  0  0  0  0  0  0  2  0  0  0  0
  1  2  4  0        0
  2  3  4  0        0
  3  4  1  0        0
  4  5  2  0        0
  4  6  2  0        0
  4  7  1  0        0
  3  8  4  0        0
  8  9  4  0        0
  9 10  4  0        0
  1 10  4  0        0
 10 11  1  0        0
 11 12  1  0        0
 12 13  1  0        0
 13 14  1  0        0
 14 15  1  0        0
 15 16  1  0        0
 16 17  1  0        0
 11 18  1  0        0
 18 19  1  0        0
 19 20  1  0        0
 20 21  1  0        0
 21 22  1  0        0
 22 23  1  0        0
M  END
>  <CAS RN>
NA

>  <SMILES>
c1cc(S(=O)(=O)O)ccc1C(CCCCCC)CCCCCC

>  <Measured or Estimated Log10(mmol/L)>
-2.067071641

$$$$

CDXL12

 24 24  0  0  0  0  0  0  0  0999 V2000
   -0.3572   -0.6187    0.0000 C   0  0  0  0  0  0  0  2  0  0  0  0
   -0.3572    0.2063    0.0000 C   0  0  0  0  0  0  0  2  0  0  0  0
    0.3572    0.6188    0.0000 C   0  0  0  0  0  0  0  2  0  0  0  0
    0.3572    1.4438    0.0000 S   0  0  0  0  0  0  0  2  0  0  0  0
    1.1822    1.4438    0.0000 O   0  0  0  0  0  0  0  2  0  0  0  0
   -0.4678    1.4438    0.0000 O   0  0  0  0  0  0  0  2  0  0  0  0
    0.3572    2.2687    0.0000 O   0  0  0  0  0  0  0  2  0  0  0  0
    1.0717    0.2063    0.0000 C   0  0  0  0  0  0  0  2  0  0  0  0
    1.0717   -0.6187    0.0000 C   0  0  0  0  0  0  0  2  0  0  0  0
    0.3572   -1.0312    0.0000 C   0  0  0  0  0  0  0  2  0  0  0  0
    0.3572   -1.8562    0.0000 C   0  0  0  0  0  0  0  2  0  0  0  0
    1.0717   -2.2687    0.0000 C   0  0  0  0  0  0  0  2  0  0  0  0
    1.7862   -1.8562    0.0000 C   0  0  0  0  0  0  0  2  0  0  0  0
    2.5006   -2.2687    0.0000 C   0  0  0  0  0  0  0  2  0  0  0  0
    3.2151   -1.8562    0.0000 C   0  0  0  0  0  0  0  2  0  0  0  0
    3.9296   -2.2687    0.0000 C   0  0  0  0  0  0  0  2  0  0  0  0
    4.6441   -1.8562    0.0000 C   0  0  0  0  0  0  0  2  0  0  0  0
   -0.3572   -2.2687    0.0000 C   0  0  0  0  0  0  0  2  0  0  0  0
   -1.0717   -1.8562    0.0000 C   0  0  0  0  0  0  0  2  0  0  0  0
   -1.7862   -2.2687    0.0000 C   0  0  0  0  0  0  0  2  0  0  0  0
   -2.5006   -1.8562    0.0000 C   0  0  0  0  0  0  0  2  0  0  0  0
   -3.2151   -2.2687    0.0000 C   0  0  0  0  0  0  0  2  0  0  0  0
   -3.9296   -1.8562    0.0000 C   0  0  0  0  0  0  0  2  0  0  0  0
   -4.6441   -2.2687    0.0000 C   0  0  0  0  0  0  0  2  0  0  0  0
  1  2  4  0        0
  2  3  4  0        0
  3  4  1  0        0
  4  5  2  0        0
  4  6  2  0        0
  4  7  1  0        0
  3  8  4  0        0
  8  9  4  0        0
  9 10  4  0        0
  1 10  4  0        0
 10 11  1  0        0
 11 12  1  0        0
 12 13  1  0        0
 13 14  1  0        0
 14 15  1  0        0
 15 16  1  0        0
 16 17  1  0        0
 11 18  1  0        0
 18 19  1  0        0
 19 20  1  0        0
 20 21  1  0        0
 21 22  1  0        0
 22 23  1  0        0
 23 24  1  0        0
M  END
>  <CAS RN>
NA

>  <SMILES>
c1cc(S(=O)(=O)O)ccc1C(CCCCCC)CCCCCCC

>  <Measured or Estimated Log10(mmol/L)>
-2.554637992

$$$$

CDXL12

 22 22  0  0  0  0  0  0  0  0999 V2000
   -2.5006   -0.6187    0.0000 C   0  0  0  0  0  0  0  2  0  0  0  0
   -2.5006    0.2063    0.0000 C   0  0  0  0  0  0  0  2  0  0  0  0
   -1.7862    0.6188    0.0000 C   0  0  0  0  0  0  0  2  0  0  0  0
   -1.7862    1.4438    0.0000 S   0  0  0  0  0  0  0  2  0  0  0  0
   -0.9612    1.4438    0.0000 O   0  0  0  0  0  0  0  2  0  0  0  0
   -2.6112    1.4438    0.0000 O   0  0  0  0  0  0  0  2  0  0  0  0
   -1.7862    2.2687    0.0000 O   0  0  0  0  0  0  0  2  0  0  0  0
   -1.0717    0.2062    0.0000 C   0  0  0  0  0  0  0  2  0  0  0  0
   -1.0717   -0.6188    0.0000 C   0  0  0  0  0  0  0  2  0  0  0  0
   -1.7862   -1.0313    0.0000 C   0  0  0  0  0  0  0  2  0  0  0  0
   -1.7862   -1.8563    0.0000 C   0  0  0  0  0  0  0  2  0  0  0  0
   -1.0717   -2.2687    0.0000 C   0  0  0  0  0  0  0  2  0  0  0  0
   -0.3572   -1.8563    0.0000 C   0  0  0  0  0  0  0  2  0  0  0  0
    0.3572   -2.2687    0.0000 C   0  0  0  0  0  0  0  2  0  0  0  0
    1.0717   -1.8563    0.0000 C   0  0  0  0  0  0  0  2  0  0  0  0
    1.7862   -2.2687    0.0000 C   0  0  0  0  0  0  0  2  0  0  0  0
    2.5006   -1.8563    0.0000 C   0  0  0  0  0  0  0  2  0  0  0  0
    3.2151   -2.2687    0.0000 C   0  0  0  0  0  0  0  2  0  0  0  0
    3.9296   -1.8563    0.0000 C   0  0  0  0  0  0  0  2  0  0  0  0
   -2.5006   -2.2687    0.0000 C   0  0  0  0  0  0  0  2  0  0  0  0
   -3.2151   -1.8562    0.0000 C   0  0  0  0  0  0  0  2  0  0  0  0
   -3.9296   -2.2687    0.0000 C   0  0  0  0  0  0  0  2  0  0  0  0
  1  2  4  0        0
  2  3  4  0        0
  3  4  1  0        0
  4  5  2  0        0
  4  6  2  0        0
  4  7  1  0        0
  3  8  4  0        0
  8  9  4  0        0
  9 10  4  0        0
  1 10  4  0        0
 10 11  1  0        0
 11 12  1  0        0
 12 13  1  0        0
 13 14  1  0        0
 14 15  1  0        0
 15 16  1  0        0
 16 17  1  0        0
 17 18  1  0        0
 18 19  1  0        0
 11 20  1  0        0
 20 21  1  0        0
 21 22  1  0        0
M  END
>  <CAS RN>
NA

>  <SMILES>
c1cc(S(=O)(=O)O)ccc1C(CCCCCCCC)CCC

>  <Measured or Estimated Log10(mmol/L)>
-1.63304759

$$$$

CDXL12

 23 23  0  0  0  0  0  0  0  0999 V2000
   -2.1434   -0.6187    0.0000 C   0  0  0  0  0  0  0  2  0  0  0  0
   -2.1434    0.2063    0.0000 C   0  0  0  0  0  0  0  2  0  0  0  0
   -1.4289    0.6188    0.0000 C   0  0  0  0  0  0  0  2  0  0  0  0
   -1.4289    1.4438    0.0000 S   0  0  0  0  0  0  0  2  0  0  0  0
   -0.6039    1.4438    0.0000 O   0  0  0  0  0  0  0  2  0  0  0  0
   -2.2539    1.4438    0.0000 O   0  0  0  0  0  0  0  2  0  0  0  0
   -1.4289    2.2687    0.0000 O   0  0  0  0  0  0  0  2  0  0  0  0
   -0.7145    0.2062    0.0000 C   0  0  0  0  0  0  0  2  0  0  0  0
   -0.7145   -0.6188    0.0000 C   0  0  0  0  0  0  0  2  0  0  0  0
   -1.4289   -1.0313    0.0000 C   0  0  0  0  0  0  0  2  0  0  0  0
   -1.4289   -1.8563    0.0000 C   0  0  0  0  0  0  0  2  0  0  0  0
   -0.7145   -2.2687    0.0000 C   0  0  0  0  0  0  0  2  0  0  0  0
    0.0000   -1.8563    0.0000 C   0  0  0  0  0  0  0  2  0  0  0  0
    0.7145   -2.2687    0.0000 C   0  0  0  0  0  0  0  2  0  0  0  0
    1.4289   -1.8563    0.0000 C   0  0  0  0  0  0  0  2  0  0  0  0
    2.1434   -2.2687    0.0000 C   0  0  0  0  0  0  0  2  0  0  0  0
    2.8579   -1.8563    0.0000 C   0  0  0  0  0  0  0  2  0  0  0  0
    3.5724   -2.2687    0.0000 C   0  0  0  0  0  0  0  2  0  0  0  0
    4.2868   -1.8563    0.0000 C   0  0  0  0  0  0  0  2  0  0  0  0
   -2.1434   -2.2687    0.0000 C   0  0  0  0  0  0  0  2  0  0  0  0
   -2.8579   -1.8562    0.0000 C   0  0  0  0  0  0  0  2  0  0  0  0
   -3.5724   -2.2687    0.0000 C   0  0  0  0  0  0  0  2  0  0  0  0
   -4.2868   -1.8562    0.0000 C   0  0  0  0  0  0  0  2  0  0  0  0
  1  2  4  0        0
  2  3  4  0        0
  3  4  1  0        0
  4  5  2  0        0
  4  6  2  0        0
  4  7  1  0        0
  3  8  4  0        0
  8  9  4  0        0
  9 10  4  0        0
  1 10  4  0        0
 10 11  1  0        0
 11 12  1  0        0
 12 13  1  0        0
 13 14  1  0        0
 14 15  1  0        0
 15 16  1  0        0
 16 17  1  0        0
 17 18  1  0        0
 18 19  1  0        0
 11 20  1  0        0
 20 21  1  0        0
 21 22  1  0        0
 22 23  1  0        0
M  END
>  <CAS RN>
NA

>  <SMILES>
c1cc(S(=O)(=O)O)ccc1C(CCCCCCCC)CCCC

>  <Measured or Estimated Log10(mmol/L)>
-1.869479299

$$$$

CDXL12

 21 21  0  0  0  0  0  0  0  0999 V2000
    2.1434    0.4678    0.0000 C   0  0  0  0  0  0  0  2  0  0  0  0
    2.8579    0.8803    0.0000 C   0  0  0  0  0  0  0  2  0  0  0  0
    3.5724    0.4678    0.0000 C   0  0  0  0  0  0  0  2  0  0  0  0
    4.2868    0.8803    0.0000 S   0  0  0  0  0  0  0  2  0  0  0  0
    4.6993    0.1658    0.0000 O   0  0  0  0  0  0  0  2  0  0  0  0
    3.8743    1.5947    0.0000 O   0  0  0  0  0  0  0  2  0  0  0  0
    5.0013    1.2928    0.0000 O   0  0  0  0  0  0  0  2  0  0  0  0
    3.5724   -0.3572    0.0000 C   0  0  0  0  0  0  0  2  0  0  0  0
    2.8579   -0.7697    0.0000 C   0  0  0  0  0  0  0  2  0  0  0  0
    2.1434   -0.3572    0.0000 C   0  0  0  0  0  0  0  2  0  0  0  0
    1.4289   -0.7697    0.0000 C   0  0  0  0  0  0  0  2  0  0  0  0
    0.7145   -0.3572    0.0000 C   0  0  0  0  0  0  0  2  0  0  0  0
    0.0000   -0.7697    0.0000 C   0  0  0  0  0  0  0  2  0  0  0  0
   -0.7145   -0.3572    0.0000 C   0  0  0  0  0  0  0  2  0  0  0  0
   -1.4289   -0.7697    0.0000 C   0  0  0  0  0  0  0  2  0  0  0  0
   -2.1434   -0.3572    0.0000 C   0  0  0  0  0  0  0  2  0  0  0  0
   -2.8579   -0.7697    0.0000 C   0  0  0  0  0  0  0  2  0  0  0  0
   -3.5724   -0.3572    0.0000 C   0  0  0  0  0  0  0  2  0  0  0  0
   -4.2868   -0.7697    0.0000 C   0  0  0  0  0  0  0  2  0  0  0  0
   -5.0013   -0.3572    0.0000 C   0  0  0  0  0  0  0  2  0  0  0  0
    1.4289   -1.5947    0.0000 C   0  0  0  0  0  0  0  2  0  0  0  0
  1  2  4  0        0
  2  3  4  0        0
  3  4  1  0        0
  4  5  2  0        0
  4  6  2  0        0
  4  7  1  0        0
  3  8  4  0        0
  8  9  4  0        0
  9 10  4  0        0
  1 10  4  0        0
 10 11  1  0        0
 11 12  1  0        0
 12 13  1  0        0
 13 14  1  0        0
 14 15  1  0        0
 15 16  1  0        0
 16 17  1  0        0
 17 18  1  0        0
 18 19  1  0        0
 19 20  1  0        0
 11 21  1  0        0
M  END
>  <CAS RN>
NA

>  <SMILES>
c1cc(S(=O)(=O)O)ccc1C(CCCCCCCCC)C

>  <Measured or Estimated Log10(mmol/L)>
-1.754592132

$$$$

CDXL12

 25 25  0  0  0  0  0  0  0  0999 V2000
    0.7145   -0.6187    0.0000 C   0  0  0  0  0  0  0  2  0  0  0  0
    0.7145    0.2063    0.0000 C   0  0  0  0  0  0  0  2  0  0  0  0
    1.4289    0.6188    0.0000 C   0  0  0  0  0  0  0  2  0  0  0  0
    1.4289    1.4438    0.0000 S   0  0  0  0  0  0  0  2  0  0  0  0
    2.2539    1.4438    0.0000 O   0  0  0  0  0  0  0  2  0  0  0  0
    0.6039    1.4438    0.0000 O   0  0  0  0  0  0  0  2  0  0  0  0
    1.4289    2.2687    0.0000 O   0  0  0  0  0  0  0  2  0  0  0  0
    2.1434    0.2063    0.0000 C   0  0  0  0  0  0  0  2  0  0  0  0
    2.1434   -0.6187    0.0000 C   0  0  0  0  0  0  0  2  0  0  0  0
    1.4289   -1.0312    0.0000 C   0  0  0  0  0  0  0  2  0  0  0  0
    1.4289   -1.8562    0.0000 C   0  0  0  0  0  0  0  2  0  0  0  0
    0.7145   -2.2687    0.0000 C   0  0  0  0  0  0  0  2  0  0  0  0
   -0.0000   -1.8562    0.0000 C   0  0  0  0  0  0  0  2  0  0  0  0
   -0.7145   -2.2687    0.0000 C   0  0  0  0  0  0  0  2  0  0  0  0
   -1.4289   -1.8562    0.0000 C   0  0  0  0  0  0  0  2  0  0  0  0
   -2.1434   -2.2687    0.0000 C   0  0  0  0  0  0  0  2  0  0  0  0
   -2.8579   -1.8562    0.0000 C   0  0  0  0  0  0  0  2  0  0  0  0
   -3.5724   -2.2687    0.0000 C   0  0  0  0  0  0  0  2  0  0  0  0
   -4.2868   -1.8562    0.0000 C   0  0  0  0  0  0  0  2  0  0  0  0
   -5.0013   -2.2687    0.0000 C   0  0  0  0  0  0  0  2  0  0  0  0
    2.1434   -2.2687    0.0000 C   0  0  0  0  0  0  0  2  0  0  0  0
    2.8579   -1.8562    0.0000 C   0  0  0  0  0  0  0  2  0  0  0  0
    3.5724   -2.2687    0.0000 C   0  0  0  0  0  0  0  2  0  0  0  0
    4.2868   -1.8562    0.0000 C   0  0  0  0  0  0  0  2  0  0  0  0
    5.0013   -2.2687    0.0000 C   0  0  0  0  0  0  0  2  0  0  0  0
  1  2  4  0        0
  2  3  4  0        0
  3  4  1  0        0
  4  5  2  0        0
  4  6  2  0        0
  4  7  1  0        0
  3  8  4  0        0
  8  9  4  0        0
  9 10  4  0        0
  1 10  4  0        0
 10 11  1  0        0
 11 12  1  0        0
 12 13  1  0        0
 13 14  1  0        0
 14 15  1  0        0
 15 16  1  0        0
 16 17  1  0        0
 17 18  1  0        0
 18 19  1  0        0
 19 20  1  0        0
 11 21  1  0        0
 21 22  1  0        0
 22 23  1  0        0
 23 24  1  0        0
 24 25  1  0        0
M  END
>  <CAS RN>
NA

>  <SMILES>
c1cc(S(=O)(=O)O)ccc1C(CCCCCCCCC)CCCCC

>  <Measured or Estimated Log10(mmol/L)>
-2.793746235

$$$$

CDXL12

 24 24  0  0  0  0  0  0  0  0999 V2000
   -4.2868   -0.4125    0.0000 C   0  0  0  0  0  0  0  2  0  0  0  0
   -4.2868    0.4125    0.0000 C   0  0  0  0  0  0  0  2  0  0  0  0
   -5.0013   -0.0000    0.0000 C   0  0  0  0  0  0  0  2  0  0  0  0
   -5.0013    0.8250    0.0000 C   0  0  0  0  0  0  0  2  0  0  0  0
   -3.5724    0.8250    0.0000 C   0  0  0  0  0  0  0  2  0  0  0  0
   -2.8579    0.4125    0.0000 C   0  0  0  0  0  0  0  2  0  0  0  0
   -2.4454   -0.3020    0.0000 C   0  0  0  0  0  0  0  2  0  0  0  0
   -3.2704   -0.3020    0.0000 C   0  0  0  0  0  0  0  2  0  0  0  0
   -2.1434    0.8250    0.0000 C   0  0  0  0  0  0  0  2  0  0  0  0
   -1.4289    0.4125    0.0000 C   0  0  0  0  0  0  0  2  0  0  0  0
   -1.4289   -0.4125    0.0000 C   0  0  0  0  0  0  0  2  0  0  0  0
   -2.1434   -0.8250    0.0000 Br  0  0  0  0  0  0  0  2  0  0  0  0
   -0.7145   -0.8250    0.0000 C   0  0  0  0  0  0  0  2  0  0  0  0
    0.0000   -0.4125    0.0000 C   0  0  0  0  0  0  0  2  0  0  0  0
    0.7145   -0.8250    0.0000 O   0  0  0  0  0  0  0  2  0  0  0  0
    1.4289   -0.4125    0.0000 C   0  0  0  0  0  0  0  2  0  0  0  0
    2.1434   -0.8250    0.0000 C   0  0  0  0  0  0  0  2  0  0  0  0
    2.8579   -0.4125    0.0000 O   0  0  0  0  0  0  0  2  0  0  0  0
    3.5724   -0.8250    0.0000 C   0  0  0  0  0  0  0  2  0  0  0  0
    4.2868   -0.4125    0.0000 C   0  0  0  0  0  0  0  2  0  0  0  0
    4.2868    0.4125    0.0000 O   0  0  0  0  0  0  0  2  0  0  0  0
    5.0013   -0.8250    0.0000 O   0  0  0  0  0  0  0  2  0  0  0  0
    0.0000    0.4125    0.0000 C   0  0  0  0  0  0  0  2  0  0  0  0
   -0.7145    0.8250    0.0000 C   0  0  0  0  0  0  0  2  0  0  0  0
  1  2  1  0        0
  2  3  1  0        0
  2  4  1  0        0
  2  5  1  0        0
  5  6  1  0        0
  6  7  1  0        0
  6  8  1  0        0
  6  9  1  0        0
  9 10  1  0        0
 10 11  4  0        0
 11 12  1  0        0
 11 13  4  0        0
 13 14  4  0        0
 14 15  1  0        0
 15 16  1  0        0
 16 17  1  0        0
 17 18  1  0        0
 18 19  1  0        0
 19 20  1  0        0
 20 21  2  0        0
 20 22  1  0        0
 14 23  4  0        0
 23 24  4  0        0
 10 24  4  0        0
M  END
>  <CAS RN>
NA

>  <SMILES>
CC(C)(C)CC(C)(C)Cc1c(Br)cc(OCCOCC(=O)O)cc1

>  <Measured or Estimated Log10(mmol/L)>
-3.454299814

$$$$

CDXL12

 23 23  0  0  0  0  0  0  0  0999 V2000
    5.0013   -0.0000    0.0000 C   0  0  0  0  0  0  0  2  0  0  0  0
    4.2868    0.4125    0.0000 C   0  0  0  0  0  0  0  2  0  0  0  0
    4.2868   -0.4125    0.0000 C   0  0  0  0  0  0  0  2  0  0  0  0
    5.0013    0.8250    0.0000 C   0  0  0  0  0  0  0  2  0  0  0  0
    3.5724    0.8250    0.0000 C   0  0  0  0  0  0  0  2  0  0  0  0
    2.8579    0.4125    0.0000 C   0  0  0  0  0  0  0  2  0  0  0  0
    3.2704   -0.3020    0.0000 C   0  0  0  0  0  0  0  2  0  0  0  0
    2.4454   -0.3020    0.0000 C   0  0  0  0  0  0  0  2  0  0  0  0
    2.1434    0.8250    0.0000 C   0  0  0  0  0  0  0  2  0  0  0  0
    1.4289    0.4125    0.0000 C   0  0  0  0  0  0  0  2  0  0  0  0
    1.4289   -0.4125    0.0000 C   0  0  0  0  0  0  0  2  0  0  0  0
    2.1434   -0.8250    0.0000 Br  0  0  0  0  0  0  0  2  0  0  0  0
    0.7145   -0.8250    0.0000 C   0  0  0  0  0  0  0  2  0  0  0  0
    0.0000   -0.4125    0.0000 C   0  0  0  0  0  0  0  2  0  0  0  0
   -0.7145   -0.8250    0.0000 O   0  0  0  0  0  0  0  2  0  0  0  0
   -1.4289   -0.4125    0.0000 C   0  0  0  0  0  0  0  2  0  0  0  0
   -2.1434   -0.8250    0.0000 C   0  0  0  0  0  0  0  2  0  0  0  0
   -2.8579   -0.4125    0.0000 O   0  0  0  0  0  0  0  2  0  0  0  0
   -3.5724   -0.8250    0.0000 C   0  0  0  0  0  0  0  2  0  0  0  0
   -4.2868   -0.4125    0.0000 C   0  0  0  0  0  0  0  2  0  0  0  0
   -5.0013   -0.8250    0.0000 O   0  0  0  0  0  0  0  2  0  0  0  0
    0.0000    0.4125    0.0000 C   0  0  0  0  0  0  0  2  0  0  0  0
    0.7145    0.8250    0.0000 C   0  0  0  0  0  0  0  2  0  0  0  0
  1  2  1  0        0
  2  3  1  0        0
  2  4  1  0        0
  2  5  1  0        0
  5  6  1  0        0
  6  7  1  0        0
  6  8  1  0        0
  6  9  1  0        0
  9 10  1  0        0
 10 11  4  0        0
 11 12  1  0        0
 11 13  4  0        0
 13 14  4  0        0
 14 15  1  0        0
 15 16  1  0        0
 16 17  1  0        0
 17 18  1  0        0
 18 19  1  0        0
 19 20  1  0        0
 20 21  1  0        0
 14 22  4  0        0
 22 23  4  0        0
 10 23  4  0        0
M  END
>  <CAS RN>
NA

>  <SMILES>
CC(C)(C)CC(C)(C)Cc1c(Br)cc(OCCOCCO)cc1

>  <Measured or Estimated Log10(mmol/L)>
-3.762043322

$$$$

CDXL12

 23 23  0  0  0  0  0  0  0  0999 V2000
   -4.2868   -0.4125    0.0000 C   0  0  0  0  0  0  0  2  0  0  0  0
   -4.2868    0.4125    0.0000 C   0  0  0  0  0  0  0  2  0  0  0  0
   -5.0013    0.0000    0.0000 C   0  0  0  0  0  0  0  2  0  0  0  0
   -5.0013    0.8250    0.0000 C   0  0  0  0  0  0  0  2  0  0  0  0
   -3.5724    0.8250    0.0000 C   0  0  0  0  0  0  0  2  0  0  0  0
   -2.8579    0.4125    0.0000 C   0  0  0  0  0  0  0  2  0  0  0  0
   -2.4454   -0.3020    0.0000 C   0  0  0  0  0  0  0  2  0  0  0  0
   -3.2704   -0.3020    0.0000 C   0  0  0  0  0  0  0  2  0  0  0  0
   -2.1434    0.8250    0.0000 C   0  0  0  0  0  0  0  2  0  0  0  0
   -1.4289    0.4125    0.0000 C   0  0  0  0  0  0  0  2  0  0  0  0
   -0.7145    0.8250    0.0000 C   0  0  0  0  0  0  0  2  0  0  0  0
    0.0000    0.4125    0.0000 C   0  0  0  0  0  0  0  2  0  0  0  0
    0.0000   -0.4125    0.0000 C   0  0  0  0  0  0  0  2  0  0  0  0
    0.7145   -0.8250    0.0000 O   0  0  0  0  0  0  0  2  0  0  0  0
    1.4289   -0.4125    0.0000 C   0  0  0  0  0  0  0  2  0  0  0  0
    2.1434   -0.8250    0.0000 C   0  0  0  0  0  0  0  2  0  0  0  0
    2.8579   -0.4125    0.0000 O   0  0  0  0  0  0  0  2  0  0  0  0
    3.5724   -0.8250    0.0000 C   0  0  0  0  0  0  0  2  0  0  0  0
    4.2868   -0.4125    0.0000 C   0  0  0  0  0  0  0  2  0  0  0  0
    4.2868    0.4125    0.0000 O   0  0  0  0  0  0  0  2  0  0  0  0
    5.0013   -0.8250    0.0000 O   0  0  0  0  0  0  0  2  0  0  0  0
   -0.7145   -0.8250    0.0000 C   0  0  0  0  0  0  0  2  0  0  0  0
   -1.4289   -0.4125    0.0000 C   0  0  0  0  0  0  0  2  0  0  0  0
  1  2  1  0        0
  2  3  1  0        0
  2  4  1  0        0
  2  5  1  0        0
  5  6  1  0        0
  6  7  1  0        0
  6  8  1  0        0
  6  9  1  0        0
  9 10  1  0        0
 10 11  4  0        0
 11 12  4  0        0
 12 13  4  0        0
 13 14  1  0        0
 14 15  1  0        0
 15 16  1  0        0
 16 17  1  0        0
 17 18  1  0        0
 18 19  1  0        0
 19 20  2  0        0
 19 21  1  0        0
 13 22  4  0        0
 22 23  4  0        0
 10 23  4  0        0
M  END
>  <CAS RN>
NA

>  <SMILES>
CC(C)(C)CC(C)(C)Cc1ccc(OCCOCC(=O)O)cc1

>  <Measured or Estimated Log10(mmol/L)>
-2.512820443

$$$$

CDXL12

 22 22  0  0  0  0  0  0  0  0999 V2000
    5.0013   -0.0000    0.0000 C   0  0  0  0  0  0  0  2  0  0  0  0
    4.2868    0.4125    0.0000 C   0  0  0  0  0  0  0  2  0  0  0  0
    4.2868   -0.4125    0.0000 C   0  0  0  0  0  0  0  2  0  0  0  0
    5.0013    0.8250    0.0000 C   0  0  0  0  0  0  0  2  0  0  0  0
    3.5724    0.8250    0.0000 C   0  0  0  0  0  0  0  2  0  0  0  0
    2.8579    0.4125    0.0000 C   0  0  0  0  0  0  0  2  0  0  0  0
    3.2704   -0.3020    0.0000 C   0  0  0  0  0  0  0  2  0  0  0  0
    2.4454   -0.3020    0.0000 C   0  0  0  0  0  0  0  2  0  0  0  0
    2.1434    0.8250    0.0000 C   0  0  0  0  0  0  0  2  0  0  0  0
    1.4289    0.4125    0.0000 C   0  0  0  0  0  0  0  2  0  0  0  0
    1.4289   -0.4125    0.0000 C   0  0  0  0  0  0  0  2  0  0  0  0
    0.7145   -0.8250    0.0000 C   0  0  0  0  0  0  0  2  0  0  0  0
    0.0000   -0.4125    0.0000 C   0  0  0  0  0  0  0  2  0  0  0  0
   -0.7145   -0.8250    0.0000 O   0  0  0  0  0  0  0  2  0  0  0  0
   -1.4289   -0.4125    0.0000 C   0  0  0  0  0  0  0  2  0  0  0  0
   -2.1434   -0.8250    0.0000 C   0  0  0  0  0  0  0  2  0  0  0  0
   -2.8579   -0.4125    0.0000 O   0  0  0  0  0  0  0  2  0  0  0  0
   -3.5724   -0.8250    0.0000 C   0  0  0  0  0  0  0  2  0  0  0  0
   -4.2868   -0.4125    0.0000 C   0  0  0  0  0  0  0  2  0  0  0  0
   -5.0013   -0.8250    0.0000 O   0  0  0  0  0  0  0  2  0  0  0  0
    0.0000    0.4125    0.0000 C   0  0  0  0  0  0  0  2  0  0  0  0
    0.7145    0.8250    0.0000 C   0  0  0  0  0  0  0  2  0  0  0  0
  1  2  1  0        0
  2  3  1  0        0
  2  4  1  0        0
  2  5  1  0        0
  5  6  1  0        0
  6  7  1  0        0
  6  8  1  0        0
  6  9  1  0        0
  9 10  1  0        0
 10 11  4  0        0
 11 12  4  0        0
 12 13  4  0        0
 13 14  1  0        0
 14 15  1  0        0
 15 16  1  0        0
 16 17  1  0        0
 17 18  1  0        0
 18 19  1  0        0
 19 20  1  0        0
 13 21  4  0        0
 21 22  4  0        0
 10 22  4  0        0
M  END
>  <CAS RN>
NA

>  <SMILES>
CC(C)(C)CC(C)(C)Cc1ccc(OCCOCCO)cc1

>  <Measured or Estimated Log10(mmol/L)>
-3.318939945

$$$$

CDXL12

 43 43  0  0  0  0  0  0  0  0999 V2000
   12.5032   -0.0000    0.0000 C   0  0  0  0  0  0  0  2  0  0  0  0
   11.7888    0.4125    0.0000 C   0  0  0  0  0  0  0  2  0  0  0  0
   11.7888   -0.4125    0.0000 C   0  0  0  0  0  0  0  2  0  0  0  0
   12.5032    0.8250    0.0000 C   0  0  0  0  0  0  0  2  0  0  0  0
   11.0743    0.8250    0.0000 C   0  0  0  0  0  0  0  2  0  0  0  0
   10.3598    0.4125    0.0000 C   0  0  0  0  0  0  0  2  0  0  0  0
   10.7723   -0.3020    0.0000 C   0  0  0  0  0  0  0  2  0  0  0  0
    9.9473   -0.3020    0.0000 C   0  0  0  0  0  0  0  2  0  0  0  0
    9.6454    0.8250    0.0000 C   0  0  0  0  0  0  0  2  0  0  0  0
    8.9309    0.4125    0.0000 C   0  0  0  0  0  0  0  2  0  0  0  0
    8.9309   -0.4125    0.0000 C   0  0  0  0  0  0  0  2  0  0  0  0
    8.2164   -0.8250    0.0000 C   0  0  0  0  0  0  0  2  0  0  0  0
    7.5019   -0.4125    0.0000 C   0  0  0  0  0  0  0  2  0  0  0  0
    6.7875   -0.8250    0.0000 O   0  0  0  0  0  0  0  2  0  0  0  0
    6.0730   -0.4125    0.0000 C   0  0  0  0  0  0  0  2  0  0  0  0
    5.3585   -0.8250    0.0000 C   0  0  0  0  0  0  0  2  0  0  0  0
    4.6441   -0.4125    0.0000 O   0  0  0  0  0  0  0  2  0  0  0  0
    3.9296   -0.8250    0.0000 C   0  0  0  0  0  0  0  2  0  0  0  0
    3.2151   -0.4125    0.0000 C   0  0  0  0  0  0  0  2  0  0  0  0
    2.5006   -0.8250    0.0000 O   0  0  0  0  0  0  0  2  0  0  0  0
    1.7862   -0.4125    0.0000 C   0  0  0  0  0  0  0  2  0  0  0  0
    1.0717   -0.8250    0.0000 C   0  0  0  0  0  0  0  2  0  0  0  0
    0.3572   -0.4125    0.0000 O   0  0  0  0  0  0  0  2  0  0  0  0
   -0.3572   -0.8250    0.0000 C   0  0  0  0  0  0  0  2  0  0  0  0
   -1.0717   -0.4125    0.0000 C   0  0  0  0  0  0  0  2  0  0  0  0
   -1.7862   -0.8250    0.0000 O   0  0  0  0  0  0  0  2  0  0  0  0
   -2.5006   -0.4125    0.0000 C   0  0  0  0  0  0  0  2  0  0  0  0
   -3.2151   -0.8250    0.0000 C   0  0  0  0  0  0  0  2  0  0  0  0
   -3.9296   -0.4125    0.0000 O   0  0  0  0  0  0  0  2  0  0  0  0
   -4.6441   -0.8250    0.0000 C   0  0  0  0  0  0  0  2  0  0  0  0
   -5.3585   -0.4125    0.0000 C   0  0  0  0  0  0  0  2  0  0  0  0
   -6.0730   -0.8250    0.0000 O   0  0  0  0  0  0  0  2  0  0  0  0
   -6.7875   -0.4125    0.0000 C   0  0  0  0  0  0  0  2  0  0  0  0
   -7.5019   -0.8250    0.0000 C   0  0  0  0  0  0  0  2  0  0  0  0
   -8.2164   -0.4125    0.0000 O   0  0  0  0  0  0  0  2  0  0  0  0
   -8.9309   -0.8250    0.0000 C   0  0  0  0  0  0  0  2  0  0  0  0
   -9.6454   -0.4125    0.0000 C   0  0  0  0  0  0  0  2  0  0  0  0
  -10.3598   -0.8250    0.0000 O   0  0  0  0  0  0  0  2  0  0  0  0
  -11.0743   -0.4125    0.0000 C   0  0  0  0  0  0  0  2  0  0  0  0
  -11.7888   -0.8250    0.0000 C   0  0  0  0  0  0  0  2  0  0  0  0
  -12.5032   -0.4125    0.0000 O   0  0  0  0  0  0  0  2  0  0  0  0
    7.5019    0.4125    0.0000 C   0  0  0  0  0  0  0  2  0  0  0  0
    8.2164    0.8250    0.0000 C   0  0  0  0  0  0  0  2  0  0  0  0
  1  2  1  0        0
  2  3  1  0        0
  2  4  1  0        0
  2  5  1  0        0
  5  6  1  0        0
  6  7  1  0        0
  6  8  1  0        0
  6  9  1  0        0
  9 10  1  0        0
 10 11  4  0        0
 11 12  4  0        0
 12 13  4  0        0
 13 14  1  0        0
 14 15  1  0        0
 15 16  1  0        0
 16 17  1  0        0
 17 18  1  0        0
 18 19  1  0        0
 19 20  1  0        0
 20 21  1  0        0
 21 22  1  0        0
 22 23  1  0        0
 23 24  1  0        0
 24 25  1  0        0
 25 26  1  0        0
 26 27  1  0        0
 27 28  1  0        0
 28 29  1  0        0
 29 30  1  0        0
 30 31  1  0        0
 31 32  1  0        0
 32 33  1  0        0
 33 34  1  0        0
 34 35  1  0        0
 35 36  1  0        0
 36 37  1  0        0
 37 38  1  0        0
 38 39  1  0        0
 39 40  1  0        0
 40 41  1  0        0
 13 42  4  0        0
 42 43  4  0        0
 10 43  4  0        0
M  END
>  <CAS RN>
NA

>  <SMILES>
CC(C)(C)CC(C)(C)Cc1ccc(OCCOCCOCCOCCOCCOCCOCCOCCOCCO)cc1

>  <Measured or Estimated Log10(mmol/L)>
-1.676224238

$$$$

CDXL12

 40 42  0  0  0  0  0  0  0  0999 V2000
   -4.7812    0.4363    0.0000 C   0  0  0  0  0  0  0  2  0  0  0  0
   -4.7812   -0.3887    0.0000 C   0  0  0  0  0  0  0  2  0  0  0  0
   -5.4956   -0.8012    0.0000 C   0  0  0  0  0  0  0  2  0  0  0  0
   -4.0667   -0.8012    0.0000 C   0  0  0  0  0  0  0  2  0  0  0  0
   -4.0667   -1.6262    0.0000 N   0  0  0  0  0  0  0  2  0  0  0  0
   -3.3522   -2.0387    0.0000 H   0  0  0  0  0  0  0  2  0  0  0  0
   -4.0667   -2.4512    0.0000 H   0  0  0  0  0  0  0  2  0  0  0  0
   -4.7812   -2.0387    0.0000 Cl  0  0  0  0  0  0  0  2  0  0  0  0
   -3.3522   -0.3887    0.0000 C   0  0  0  0  0  0  0  2  0  0  0  0
   -3.3522    0.4363    0.0000 O   0  0  0  0  0  0  0  2  0  0  0  0
   -2.6377   -0.8012    0.0000 N   0  0  0  0  0  0  0  2  0  0  0  0
   -1.9233   -0.3887    0.0000 C   0  0  0  0  0  0  0  2  0  0  0  0
   -1.2088   -0.8012    0.0000 C   0  0  0  0  0  0  0  2  0  0  0  0
   -1.6213   -1.5156    0.0000 C   0  0  0  0  0  0  0  2  0  0  0  0
   -0.7963   -1.5156    0.0000 C   0  0  0  0  0  0  0  2  0  0  0  0
   -0.4943   -0.3887    0.0000 S   0  0  0  0  0  0  0  2  0  0  0  0
    0.2201   -0.8012    0.0000 C   0  0  0  0  0  0  0  2  0  0  0  0
    0.9346   -0.3887    0.0000 C   0  0  0  0  0  0  0  2  0  0  0  0
    0.9346    0.4363    0.0000 O   0  0  0  0  0  0  0  2  0  0  0  0
    1.6491   -0.8012    0.0000 O   0  0  0  0  0  0  0  2  0  0  0  0
    2.3636   -0.3887    0.0000 C   0  0  0  0  0  0  0  2  0  0  0  0
    2.2596    0.6580    0.0000 C   0  0  0  0  0  0  0  2  0  0  0  0
    2.9768    1.4275    0.0000 C   0  0  0  0  0  0  0  2  0  0  0  0
    2.3206    1.9276    0.0000 C   0  0  0  0  0  0  0  2  0  0  0  0
    3.0818    2.2458    0.0000 C   0  0  0  0  0  0  0  2  0  0  0  0
    3.8429    2.5640    0.0000 C   0  0  0  0  0  0  0  2  0  0  0  0
    4.0282    1.3974    0.0000 C   0  0  0  0  0  0  0  2  0  0  0  0
    4.7002    0.5881    0.0000 C   0  0  0  0  0  0  0  2  0  0  0  0
    5.4956    0.8069    0.0000 C   0  0  0  0  0  0  0  2  0  0  0  0
    4.5364   -0.4509    0.0000 C   0  0  0  0  0  0  0  2  0  0  0  0
    4.2182    0.3102    0.0000 C   0  0  0  0  0  0  0  2  0  0  0  0
    3.4000    0.4153    0.0000 C   0  0  0  0  0  0  0  2  0  0  0  0
    2.8999   -0.2409    0.0000 C   0  0  0  0  0  0  0  2  0  0  0  0
    2.0816   -0.1359    0.0000 C   0  0  0  0  0  0  0  2  0  0  0  0
    3.2181   -1.0021    0.0000 C   0  0  0  0  0  0  0  2  0  0  0  0
    4.0364   -1.1071    0.0000 C   0  0  0  0  0  0  0  2  0  0  0  0
    4.5059   -1.7855    0.0000 C   0  0  0  0  0  0  0  2  0  0  0  0
    5.2961   -1.5486    0.0000 C   0  0  0  0  0  0  0  2  0  0  0  0
    5.3150   -0.7238    0.0000 C   0  0  0  0  0  0  0  2  0  0  0  0
    4.2330   -2.5640    0.0000 O   0  0  0  0  0  0  0  2  0  0  0  0
  1  2  1  0        0
  2  3  1  0        0
  2  4  1  0        0
  4  5  1  0        0
  5  6  1  0        0
  5  7  1  0        0
  5  8  1  0        0
  4  9  1  0        0
  9 10  2  0        0
  9 11  1  0        0
 11 12  1  0        0
 12 13  1  0        0
 13 14  1  0        0
 13 15  1  0        0
 13 16  1  0        0
 16 17  1  0        0
 17 18  1  0        0
 18 19  2  0        0
 18 20  1  0        0
 20 21  1  0        0
 21 22  1  0        0
 22 23  1  0        0
 23 24  1  0        0
 23 25  1  0        0
 25 26  2  0        0
 23 27  1  0        0
 27 28  1  0        0
 28 29  1  0        0
 28 30  1  0        0
 30 31  1  0        0
 31 32  1  0        0
 32 33  1  0        0
 33 34  1  0        0
 33 35  1  0        0
 21 35  1  0        0
 35 36  1  0        0
 30 36  1  0        0
 36 37  1  0        0
 37 38  1  0        0
 38 39  1  0        0
 30 39  1  0        0
 37 40  2  0        0
M  END
>  <CAS RN>
NA

>  <SMILES>
CC(C)C(N([H])([H])Cl)C(=O)NCC(C)(C)SCC(=O)OC1CC(C)(C=C)CC(C)C23CCC(C)C1C2C(CC3)=O

>  <Measured or Estimated Log10(mmol/L)>
-1.105763093

$$$$

CDXL12

 35 34  0  0  0  0  0  0  0  0999 V2000
   -9.6454   -0.9760    0.0000 C   0  0  0  0  0  0  0  2  0  0  0  0
   -9.6454   -0.1510    0.0000 C   0  0  0  0  0  0  0  2  0  0  0  0
  -10.3598    0.2615    0.0000 C   0  0  0  0  0  0  0  2  0  0  0  0
   -8.9309    0.2615    0.0000 C   0  0  0  0  0  0  0  2  0  0  0  0
   -8.2164   -0.1510    0.0000 C   0  0  0  0  0  0  0  2  0  0  0  0
   -8.2164   -0.9760    0.0000 C   0  0  0  0  0  0  0  2  0  0  0  0
   -7.5019    0.2615    0.0000 C   0  0  0  0  0  0  0  2  0  0  0  0
   -6.7875   -0.1510    0.0000 C   0  0  0  0  0  0  0  2  0  0  0  0
   -6.7875   -0.9760    0.0000 C   0  0  0  0  0  0  0  2  0  0  0  0
   -6.0730    0.2615    0.0000 C   0  0  0  0  0  0  0  2  0  0  0  0
   -6.4855    0.9760    0.0000 C   0  0  0  0  0  0  0  2  0  0  0  0
   -5.6605    0.9760    0.0000 C   0  0  0  0  0  0  0  2  0  0  0  0
   -5.3585   -0.1510    0.0000 C   0  0  0  0  0  0  0  2  0  0  0  0
   -4.6441    0.2615    0.0000 O   0  0  0  0  0  0  0  2  0  0  0  0
   -3.9296   -0.1510    0.0000 C   0  0  0  0  0  0  0  2  0  0  0  0
   -3.2151    0.2615    0.0000 C   0  0  0  0  0  0  0  2  0  0  0  0
   -2.5006   -0.1510    0.0000 O   0  0  0  0  0  0  0  2  0  0  0  0
   -1.7862    0.2615    0.0000 C   0  0  0  0  0  0  0  2  0  0  0  0
   -1.0717   -0.1510    0.0000 C   0  0  0  0  0  0  0  2  0  0  0  0
   -0.3572    0.2615    0.0000 O   0  0  0  0  0  0  0  2  0  0  0  0
    0.3572   -0.1510    0.0000 C   0  0  0  0  0  0  0  2  0  0  0  0
    1.0717    0.2615    0.0000 C   0  0  0  0  0  0  0  2  0  0  0  0
    1.7862   -0.1510    0.0000 O   0  0  0  0  0  0  0  2  0  0  0  0
    2.5006    0.2615    0.0000 C   0  0  0  0  0  0  0  2  0  0  0  0
    3.2151   -0.1510    0.0000 C   0  0  0  0  0  0  0  2  0  0  0  0
    3.9296    0.2615    0.0000 O   0  0  0  0  0  0  0  2  0  0  0  0
    4.6441   -0.1510    0.0000 C   0  0  0  0  0  0  0  2  0  0  0  0
    5.3585    0.2615    0.0000 C   0  0  0  0  0  0  0  2  0  0  0  0
    6.0730   -0.1510    0.0000 O   0  0  0  0  0  0  0  2  0  0  0  0
    6.7875    0.2615    0.0000 C   0  0  0  0  0  0  0  2  0  0  0  0
    7.5019   -0.1510    0.0000 C   0  0  0  0  0  0  0  2  0  0  0  0
    8.2164    0.2615    0.0000 O   0  0  0  0  0  0  0  2  0  0  0  0
    8.9309   -0.1510    0.0000 C   0  0  0  0  0  0  0  2  0  0  0  0
    9.6454    0.2615    0.0000 C   0  0  0  0  0  0  0  2  0  0  0  0
   10.3598   -0.1510    0.0000 O   0  0  0  0  0  0  0  2  0  0  0  0
  1  2  1  0        0
  2  3  1  0        0
  2  4  1  0        0
  4  5  1  0        0
  5  6  1  0        0
  5  7  1  0        0
  7  8  1  0        0
  8  9  1  0        0
  8 10  1  0        0
 10 11  1  0        0
 10 12  1  0        0
 10 13  1  0        0
 13 14  1  0        0
 14 15  1  0        0
 15 16  1  0        0
 16 17  1  0        0
 17 18  1  0        0
 18 19  1  0        0
 19 20  1  0        0
 20 21  1  0        0
 21 22  1  0        0
 22 23  1  0        0
 23 24  1  0        0
 24 25  1  0        0
 25 26  1  0        0
 26 27  1  0        0
 27 28  1  0        0
 28 29  1  0        0
 29 30  1  0        0
 30 31  1  0        0
 31 32  1  0        0
 32 33  1  0        0
 33 34  1  0        0
 34 35  1  0        0
M  END
>  <CAS RN>
NA

>  <SMILES>
CC(C)CC(C)CC(C)C(C)(C)COCCOCCOCCOCCOCCOCCOCCO

>  <Measured or Estimated Log10(mmol/L)>
-1.72876971

$$$$

CDXL12

 16 16  0  0  0  0  0  0  0  0999 V2000
    2.8579    1.2375    0.0000 C   0  0  0  0  0  0  0  2  0  0  0  0
    2.8579    0.4125    0.0000 C   0  0  0  0  0  0  0  2  0  0  0  0
    3.5724    0.0000    0.0000 C   0  0  0  0  0  0  0  2  0  0  0  0
    2.1434    0.0000    0.0000 O   0  0  0  0  0  0  0  2  0  0  0  0
    1.4289    0.4125    0.0000 C   0  0  0  0  0  0  0  2  0  0  0  0
    1.4289    1.2375    0.0000 O   0  0  0  0  0  0  0  2  0  0  0  0
    0.7145    0.0000    0.0000 C   0  0  0  0  0  0  0  2  0  0  0  0
   -0.0000    0.4125    0.0000 O   0  0  0  0  0  0  0  2  0  0  0  0
   -0.7145    0.0000    0.0000 C   0  0  0  0  0  0  0  2  0  0  0  0
   -0.7145   -0.8250    0.0000 C   0  0  0  0  0  0  0  2  0  0  0  0
   -1.4289   -1.2375    0.0000 C   0  0  0  0  0  0  0  2  0  0  0  0
   -2.1434   -0.8250    0.0000 C   0  0  0  0  0  0  0  2  0  0  0  0
   -2.1434    0.0000    0.0000 C   0  0  0  0  0  0  0  2  0  0  0  0
   -1.4289    0.4125    0.0000 C   0  0  0  0  0  0  0  2  0  0  0  0
   -2.8579   -1.2375    0.0000 C   0  0  0  0  0  0  0  2  0  0  0  0
   -3.5724   -0.8250    0.0000 O   0  0  0  0  0  0  0  2  0  0  0  0
  1  2  1  0        0
  2  3  1  0        0
  2  4  1  0        0
  4  5  1  0        0
  5  6  2  0        0
  5  7  1  0        0
  7  8  1  0        0
  8  9  1  0        0
  9 10  4  0        0
 10 11  4  0        0
 11 12  4  0        0
 12 13  4  0        0
 13 14  4  0        0
  9 14  4  0        0
 12 15  1  0        0
 15 16  2  0        0
M  END
>  <CAS RN>
NA

>  <SMILES>
CC(C)OC(=O)COc1ccc(cc1)C=O

>  <Measured or Estimated Log10(mmol/L)>
-0.693609705

$$$$

CDXL12

 35 34  0  0  0  0  0  0  0  0999 V2000
   -8.5737   -1.0313    0.0000 C   0  0  0  0  0  0  0  2  0  0  0  0
   -8.5737   -0.2062    0.0000 C   0  0  0  0  0  0  0  2  0  0  0  0
   -9.2881    0.2062    0.0000 C   0  0  0  0  0  0  0  2  0  0  0  0
  -10.0026   -0.2062    0.0000 C   0  0  0  0  0  0  0  2  0  0  0  0
   -7.8592    0.2062    0.0000 C   0  0  0  0  0  0  0  2  0  0  0  0
   -7.1447   -0.2062    0.0000 C   0  0  0  0  0  0  0  2  0  0  0  0
   -7.1447   -1.0313    0.0000 C   0  0  0  0  0  0  0  2  0  0  0  0
   -7.8592   -1.4438    0.0000 C   0  0  0  0  0  0  0  2  0  0  0  0
   -6.4302    0.2062    0.0000 C   0  0  0  0  0  0  0  2  0  0  0  0
   -6.4302   -0.6188    0.0000 C   0  0  0  0  0  0  0  2  0  0  0  0
   -6.4302    1.0313    0.0000 C   0  0  0  0  0  0  0  2  0  0  0  0
   -7.1447    1.4438    0.0000 C   0  0  0  0  0  0  0  2  0  0  0  0
   -5.7158   -0.2062    0.0000 C   0  0  0  0  0  0  0  2  0  0  0  0
   -5.0013    0.2062    0.0000 O   0  0  0  0  0  0  0  2  0  0  0  0
   -4.2868   -0.2062    0.0000 C   0  0  0  0  0  0  0  2  0  0  0  0
   -3.5724    0.2062    0.0000 C   0  0  0  0  0  0  0  2  0  0  0  0
   -2.8579   -0.2062    0.0000 O   0  0  0  0  0  0  0  2  0  0  0  0
   -2.1434    0.2062    0.0000 C   0  0  0  0  0  0  0  2  0  0  0  0
   -1.4289   -0.2062    0.0000 C   0  0  0  0  0  0  0  2  0  0  0  0
   -0.7145    0.2062    0.0000 O   0  0  0  0  0  0  0  2  0  0  0  0
   -0.0000   -0.2062    0.0000 C   0  0  0  0  0  0  0  2  0  0  0  0
    0.7145    0.2062    0.0000 C   0  0  0  0  0  0  0  2  0  0  0  0
    1.4289   -0.2062    0.0000 O   0  0  0  0  0  0  0  2  0  0  0  0
    2.1434    0.2062    0.0000 C   0  0  0  0  0  0  0  2  0  0  0  0
    2.8579   -0.2062    0.0000 C   0  0  0  0  0  0  0  2  0  0  0  0
    3.5724    0.2062    0.0000 O   0  0  0  0  0  0  0  2  0  0  0  0
    4.2868   -0.2062    0.0000 C   0  0  0  0  0  0  0  2  0  0  0  0
    5.0013    0.2062    0.0000 C   0  0  0  0  0  0  0  2  0  0  0  0
    5.7158   -0.2062    0.0000 O   0  0  0  0  0  0  0  2  0  0  0  0
    6.4302    0.2062    0.0000 C   0  0  0  0  0  0  0  2  0  0  0  0
    7.1447   -0.2062    0.0000 C   0  0  0  0  0  0  0  2  0  0  0  0
    7.8592    0.2062    0.0000 O   0  0  0  0  0  0  0  2  0  0  0  0
    8.5737   -0.2062    0.0000 C   0  0  0  0  0  0  0  2  0  0  0  0
    9.2881    0.2062    0.0000 C   0  0  0  0  0  0  0  2  0  0  0  0
   10.0026   -0.2062    0.0000 O   0  0  0  0  0  0  0  2  0  0  0  0
  1  2  1  0        0
  2  3  1  0        0
  3  4  1  0        0
  2  5  1  0        0
  5  6  1  0        0
  6  7  1  0        0
  7  8  1  0        0
  6  9  1  0        0
  9 10  1  0        0
  9 11  1  0        0
 11 12  1  0        0
  9 13  1  0        0
 13 14  1  0        0
 14 15  1  0        0
 15 16  1  0        0
 16 17  1  0        0
 17 18  1  0        0
 18 19  1  0        0
 19 20  1  0        0
 20 21  1  0        0
 21 22  1  0        0
 22 23  1  0        0
 23 24  1  0        0
 24 25  1  0        0
 25 26  1  0        0
 26 27  1  0        0
 27 28  1  0        0
 28 29  1  0        0
 29 30  1  0        0
 30 31  1  0        0
 31 32  1  0        0
 32 33  1  0        0
 33 34  1  0        0
 34 35  1  0        0
M  END
>  <CAS RN>
NA

>  <SMILES>
CC(CC)CC(CC)C(C)(CC)COCCOCCOCCOCCOCCOCCOCCO

>  <Measured or Estimated Log10(mmol/L)>
-1.771994864

$$$$

CDXL12

 21 21  0  0  0  0  0  0  0  0999 V2000
   -5.0013   -0.7697    0.0000 C   0  0  0  0  0  0  0  2  0  0  0  0
   -4.2868   -0.3572    0.0000 C   0  0  0  0  0  0  0  2  0  0  0  0
   -3.5724   -0.7697    0.0000 C   0  0  0  0  0  0  0  2  0  0  0  0
   -2.8579   -0.3572    0.0000 C   0  0  0  0  0  0  0  2  0  0  0  0
   -2.1434   -0.7697    0.0000 C   0  0  0  0  0  0  0  2  0  0  0  0
   -1.4289   -0.3572    0.0000 C   0  0  0  0  0  0  0  2  0  0  0  0
   -0.7145   -0.7697    0.0000 C   0  0  0  0  0  0  0  2  0  0  0  0
    0.0000   -0.3572    0.0000 C   0  0  0  0  0  0  0  2  0  0  0  0
    0.7145   -0.7697    0.0000 C   0  0  0  0  0  0  0  2  0  0  0  0
    0.7145   -1.5947    0.0000 C   0  0  0  0  0  0  0  2  0  0  0  0
    1.4289   -0.3572    0.0000 C   0  0  0  0  0  0  0  2  0  0  0  0
    1.4289    0.4678    0.0000 C   0  0  0  0  0  0  0  2  0  0  0  0
    2.1434    0.8803    0.0000 C   0  0  0  0  0  0  0  2  0  0  0  0
    2.8579    0.4678    0.0000 C   0  0  0  0  0  0  0  2  0  0  0  0
    2.8579   -0.3572    0.0000 C   0  0  0  0  0  0  0  2  0  0  0  0
    2.1434   -0.7697    0.0000 C   0  0  0  0  0  0  0  2  0  0  0  0
    3.5724    0.8803    0.0000 S   0  0  0  0  0  0  0  2  0  0  0  0
    3.9849    0.1658    0.0000 O   0  0  0  0  0  0  0  2  0  0  0  0
    3.1599    1.5947    0.0000 O   0  0  0  0  0  0  0  2  0  0  0  0
    4.2868    1.2928    0.0000 O   0  0  0  0  0  0  0  2  0  0  0  0
    5.0013    0.8803    0.0000 Na  0  0  0  0  0  0  0  2  0  0  0  0
  1  2  1  0        0
  2  3  1  0        0
  3  4  1  0        0
  4  5  1  0        0
  5  6  1  0        0
  6  7  1  0        0
  7  8  1  0        0
  8  9  1  0        0
  9 10  1  0        0
  9 11  1  0        0
 11 12  4  0        0
 12 13  4  0        0
 13 14  4  0        0
 14 15  4  0        0
 15 16  4  0        0
 11 16  4  0        0
 14 17  1  0        0
 17 18  2  0        0
 17 19  2  0        0
 17 20  1  0        0
 20 21  1  0        0
M  END
>  <CAS RN>
NA

>  <SMILES>
CCCCCCCCC(C)c1ccc(cc1)S(=O)(=O)O[Na]

>  <Measured or Estimated Log10(mmol/L)>
-1.034437383

$$$$

CDXL12

 22 22  0  0  0  0  0  0  0  0999 V2000
   -5.3585   -0.3572    0.0000 C   0  0  0  0  0  0  0  2  0  0  0  0
   -4.6441   -0.7697    0.0000 C   0  0  0  0  0  0  0  2  0  0  0  0
   -3.9296   -0.3572    0.0000 C   0  0  0  0  0  0  0  2  0  0  0  0
   -3.2151   -0.7697    0.0000 C   0  0  0  0  0  0  0  2  0  0  0  0
   -2.5006   -0.3572    0.0000 C   0  0  0  0  0  0  0  2  0  0  0  0
   -1.7862   -0.7697    0.0000 C   0  0  0  0  0  0  0  2  0  0  0  0
   -1.0717   -0.3572    0.0000 C   0  0  0  0  0  0  0  2  0  0  0  0
   -0.3572   -0.7697    0.0000 C   0  0  0  0  0  0  0  2  0  0  0  0
    0.3572   -0.3572    0.0000 C   0  0  0  0  0  0  0  2  0  0  0  0
    1.0717   -0.7697    0.0000 C   0  0  0  0  0  0  0  2  0  0  0  0
    1.0717   -1.5947    0.0000 C   0  0  0  0  0  0  0  2  0  0  0  0
    1.7862   -0.3572    0.0000 C   0  0  0  0  0  0  0  2  0  0  0  0
    2.5006   -0.7697    0.0000 C   0  0  0  0  0  0  0  2  0  0  0  0
    3.2151   -0.3572    0.0000 C   0  0  0  0  0  0  0  2  0  0  0  0
    3.2151    0.4678    0.0000 C   0  0  0  0  0  0  0  2  0  0  0  0
    2.5006    0.8803    0.0000 C   0  0  0  0  0  0  0  2  0  0  0  0
    1.7862    0.4678    0.0000 C   0  0  0  0  0  0  0  2  0  0  0  0
    3.9296    0.8803    0.0000 S   0  0  0  0  0  0  0  2  0  0  0  0
    3.5171    1.5947    0.0000 O   0  0  0  0  0  0  0  2  0  0  0  0
    4.3421    0.1658    0.0000 O   0  0  0  0  0  0  0  2  0  0  0  0
    4.6441    1.2928    0.0000 O   0  0  0  0  0  0  0  2  0  0  0  0
    5.3585    0.8803    0.0000 Na  0  0  0  0  0  0  0  2  0  0  0  0
  1  2  1  0        0
  2  3  1  0        0
  3  4  1  0        0
  4  5  1  0        0
  5  6  1  0        0
  6  7  1  0        0
  7  8  1  0        0
  8  9  1  0        0
  9 10  1  0        0
 10 11  1  0        0
 10 12  1  0        0
 12 13  4  0        0
 13 14  4  0        0
 14 15  4  0        0
 15 16  4  0        0
 16 17  4  0        0
 12 17  4  0        0
 15 18  1  0        0
 18 19  2  0        0
 18 20  2  0        0
 18 21  1  0        0
 21 22  1  0        0
M  END
>  <CAS RN>
NA

>  <SMILES>
CCCCCCCCCC(C)c1ccc(cc1)S(=O)(=O)O[Na]

>  <Measured or Estimated Log10(mmol/L)>
-1.198000524

$$$$

CDXL12

 23 23  0  0  0  0  0  0  0  0999 V2000
   -5.7158   -0.7697    0.0000 C   0  0  0  0  0  0  0  2  0  0  0  0
   -5.0013   -0.3572    0.0000 C   0  0  0  0  0  0  0  2  0  0  0  0
   -4.2868   -0.7697    0.0000 C   0  0  0  0  0  0  0  2  0  0  0  0
   -3.5724   -0.3572    0.0000 C   0  0  0  0  0  0  0  2  0  0  0  0
   -2.8579   -0.7697    0.0000 C   0  0  0  0  0  0  0  2  0  0  0  0
   -2.1434   -0.3572    0.0000 C   0  0  0  0  0  0  0  2  0  0  0  0
   -1.4289   -0.7697    0.0000 C   0  0  0  0  0  0  0  2  0  0  0  0
   -0.7145   -0.3572    0.0000 C   0  0  0  0  0  0  0  2  0  0  0  0
    0.0000   -0.7697    0.0000 C   0  0  0  0  0  0  0  2  0  0  0  0
    0.7145   -0.3572    0.0000 C   0  0  0  0  0  0  0  2  0  0  0  0
    1.4289   -0.7697    0.0000 C   0  0  0  0  0  0  0  2  0  0  0  0
    1.4289   -1.5947    0.0000 C   0  0  0  0  0  0  0  2  0  0  0  0
    2.1434   -0.3572    0.0000 C   0  0  0  0  0  0  0  2  0  0  0  0
    2.1434    0.4678    0.0000 C   0  0  0  0  0  0  0  2  0  0  0  0
    2.8579    0.8803    0.0000 C   0  0  0  0  0  0  0  2  0  0  0  0
    3.5724    0.4678    0.0000 C   0  0  0  0  0  0  0  2  0  0  0  0
    3.5724   -0.3572    0.0000 C   0  0  0  0  0  0  0  2  0  0  0  0
    2.8579   -0.7697    0.0000 C   0  0  0  0  0  0  0  2  0  0  0  0
    4.2868    0.8803    0.0000 S   0  0  0  0  0  0  0  2  0  0  0  0
    4.6993    0.1658    0.0000 O   0  0  0  0  0  0  0  2  0  0  0  0
    3.8743    1.5947    0.0000 O   0  0  0  0  0  0  0  2  0  0  0  0
    5.0013    1.2928    0.0000 O   0  0  0  0  0  0  0  2  0  0  0  0
    5.7158    0.8803    0.0000 Na  0  0  0  0  0  0  0  2  0  0  0  0
  1  2  1  0        0
  2  3  1  0        0
  3  4  1  0        0
  4  5  1  0        0
  5  6  1  0        0
  6  7  1  0        0
  7  8  1  0        0
  8  9  1  0        0
  9 10  1  0        0
 10 11  1  0        0
 11 12  1  0        0
 11 13  1  0        0
 13 14  4  0        0
 14 15  4  0        0
 15 16  4  0        0
 16 17  4  0        0
 17 18  4  0        0
 13 18  4  0        0
 16 19  1  0        0
 19 20  2  0        0
 19 21  2  0        0
 19 22  1  0        0
 22 23  1  0        0
M  END
>  <CAS RN>
NA

>  <SMILES>
CCCCCCCCCCC(C)c1ccc(cc1)S(=O)(=O)O[Na]

>  <Measured or Estimated Log10(mmol/L)>
-1.771327083

$$$$

CDXL12

 24 24  0  0  0  0  0  0  0  0999 V2000
   -6.0730   -0.3572    0.0000 C   0  0  0  0  0  0  0  2  0  0  0  0
   -5.3585   -0.7697    0.0000 C   0  0  0  0  0  0  0  2  0  0  0  0
   -4.6441   -0.3572    0.0000 C   0  0  0  0  0  0  0  2  0  0  0  0
   -3.9296   -0.7697    0.0000 C   0  0  0  0  0  0  0  2  0  0  0  0
   -3.2151   -0.3572    0.0000 C   0  0  0  0  0  0  0  2  0  0  0  0
   -2.5006   -0.7697    0.0000 C   0  0  0  0  0  0  0  2  0  0  0  0
   -1.7862   -0.3572    0.0000 C   0  0  0  0  0  0  0  2  0  0  0  0
   -1.0717   -0.7697    0.0000 C   0  0  0  0  0  0  0  2  0  0  0  0
   -0.3572   -0.3572    0.0000 C   0  0  0  0  0  0  0  2  0  0  0  0
    0.3572   -0.7697    0.0000 C   0  0  0  0  0  0  0  2  0  0  0  0
    1.0717   -0.3572    0.0000 C   0  0  0  0  0  0  0  2  0  0  0  0
    1.7862   -0.7697    0.0000 C   0  0  0  0  0  0  0  2  0  0  0  0
    1.7862   -1.5947    0.0000 C   0  0  0  0  0  0  0  2  0  0  0  0
    2.5006   -0.3572    0.0000 C   0  0  0  0  0  0  0  2  0  0  0  0
    3.2151   -0.7697    0.0000 C   0  0  0  0  0  0  0  2  0  0  0  0
    3.9296   -0.3572    0.0000 C   0  0  0  0  0  0  0  2  0  0  0  0
    3.9296    0.4678    0.0000 C   0  0  0  0  0  0  0  2  0  0  0  0
    3.2151    0.8803    0.0000 C   0  0  0  0  0  0  0  2  0  0  0  0
    2.5006    0.4678    0.0000 C   0  0  0  0  0  0  0  2  0  0  0  0
    4.6441    0.8803    0.0000 S   0  0  0  0  0  0  0  2  0  0  0  0
    4.2316    1.5947    0.0000 O   0  0  0  0  0  0  0  2  0  0  0  0
    5.0566    0.1658    0.0000 O   0  0  0  0  0  0  0  2  0  0  0  0
    5.3585    1.2928    0.0000 O   0  0  0  0  0  0  0  2  0  0  0  0
    6.0730    0.8803    0.0000 Na  0  0  0  0  0  0  0  2  0  0  0  0
  1  2  1  0        0
  2  3  1  0        0
  3  4  1  0        0
  4  5  1  0        0
  5  6  1  0        0
  6  7  1  0        0
  7  8  1  0        0
  8  9  1  0        0
  9 10  1  0        0
 10 11  1  0        0
 11 12  1  0        0
 12 13  1  0        0
 12 14  1  0        0
 14 15  4  0        0
 15 16  4  0        0
 16 17  4  0        0
 17 18  4  0        0
 18 19  4  0        0
 14 19  4  0        0
 17 20  1  0        0
 20 21  2  0        0
 20 22  2  0        0
 20 23  1  0        0
 23 24  1  0        0
M  END
>  <CAS RN>
NA

>  <SMILES>
CCCCCCCCCCCC(C)c1ccc(cc1)S(=O)(=O)O[Na]

>  <Measured or Estimated Log10(mmol/L)>
-2.144344238

$$$$

CDXL12

 25 25  0  0  0  0  0  0  0  0999 V2000
   -6.4302   -0.7697    0.0000 C   0  0  0  0  0  0  0  2  0  0  0  0
   -5.7158   -0.3572    0.0000 C   0  0  0  0  0  0  0  2  0  0  0  0
   -5.0013   -0.7697    0.0000 C   0  0  0  0  0  0  0  2  0  0  0  0
   -4.2868   -0.3572    0.0000 C   0  0  0  0  0  0  0  2  0  0  0  0
   -3.5724   -0.7697    0.0000 C   0  0  0  0  0  0  0  2  0  0  0  0
   -2.8579   -0.3572    0.0000 C   0  0  0  0  0  0  0  2  0  0  0  0
   -2.1434   -0.7697    0.0000 C   0  0  0  0  0  0  0  2  0  0  0  0
   -1.4289   -0.3572    0.0000 C   0  0  0  0  0  0  0  2  0  0  0  0
   -0.7145   -0.7697    0.0000 C   0  0  0  0  0  0  0  2  0  0  0  0
    0.0000   -0.3572    0.0000 C   0  0  0  0  0  0  0  2  0  0  0  0
    0.7145   -0.7697    0.0000 C   0  0  0  0  0  0  0  2  0  0  0  0
    1.4289   -0.3572    0.0000 C   0  0  0  0  0  0  0  2  0  0  0  0
    2.1434   -0.7697    0.0000 C   0  0  0  0  0  0  0  2  0  0  0  0
    2.1434   -1.5947    0.0000 C   0  0  0  0  0  0  0  2  0  0  0  0
    2.8579   -0.3572    0.0000 C   0  0  0  0  0  0  0  2  0  0  0  0
    2.8579    0.4678    0.0000 C   0  0  0  0  0  0  0  2  0  0  0  0
    3.5724    0.8803    0.0000 C   0  0  0  0  0  0  0  2  0  0  0  0
    4.2868    0.4678    0.0000 C   0  0  0  0  0  0  0  2  0  0  0  0
    4.2868   -0.3572    0.0000 C   0  0  0  0  0  0  0  2  0  0  0  0
    3.5724   -0.7697    0.0000 C   0  0  0  0  0  0  0  2  0  0  0  0
    5.0013    0.8803    0.0000 S   0  0  0  0  0  0  0  2  0  0  0  0
    5.4138    0.1658    0.0000 O   0  0  0  0  0  0  0  2  0  0  0  0
    4.5888    1.5947    0.0000 O   0  0  0  0  0  0  0  2  0  0  0  0
    5.7158    1.2928    0.0000 O   0  0  0  0  0  0  0  2  0  0  0  0
    6.4302    0.8803    0.0000 Na  0  0  0  0  0  0  0  2  0  0  0  0
  1  2  1  0        0
  2  3  1  0        0
  3  4  1  0        0
  4  5  1  0        0
  5  6  1  0        0
  6  7  1  0        0
  7  8  1  0        0
  8  9  1  0        0
  9 10  1  0        0
 10 11  1  0        0
 11 12  1  0        0
 12 13  1  0        0
 13 14  1  0        0
 13 15  1  0        0
 15 16  4  0        0
 16 17  4  0        0
 17 18  4  0        0
 18 19  4  0        0
 19 20  4  0        0
 15 20  4  0        0
 18 21  1  0        0
 21 22  2  0        0
 21 23  2  0        0
 21 24  1  0        0
 24 25  1  0        0
M  END
>  <CAS RN>
NA

>  <SMILES>
CCCCCCCCCCCCC(C)c1ccc(cc1)S(=O)(=O)O[Na]

>  <Measured or Estimated Log10(mmol/L)>
-2.743296429

$$$$

CDXL12

 27 27  0  0  0  0  0  0  0  0999 V2000
   -7.1447   -0.7697    0.0000 C   0  0  0  0  0  0  0  2  0  0  0  0
   -6.4302   -0.3572    0.0000 C   0  0  0  0  0  0  0  2  0  0  0  0
   -5.7158   -0.7697    0.0000 C   0  0  0  0  0  0  0  2  0  0  0  0
   -5.0013   -0.3572    0.0000 C   0  0  0  0  0  0  0  2  0  0  0  0
   -4.2868   -0.7697    0.0000 C   0  0  0  0  0  0  0  2  0  0  0  0
   -3.5724   -0.3572    0.0000 C   0  0  0  0  0  0  0  2  0  0  0  0
   -2.8579   -0.7697    0.0000 C   0  0  0  0  0  0  0  2  0  0  0  0
   -2.1434   -0.3572    0.0000 C   0  0  0  0  0  0  0  2  0  0  0  0
   -1.4289   -0.7697    0.0000 C   0  0  0  0  0  0  0  2  0  0  0  0
   -0.7145   -0.3572    0.0000 C   0  0  0  0  0  0  0  2  0  0  0  0
    0.0000   -0.7697    0.0000 C   0  0  0  0  0  0  0  2  0  0  0  0
    0.7145   -0.3572    0.0000 C   0  0  0  0  0  0  0  2  0  0  0  0
    1.4289   -0.7697    0.0000 C   0  0  0  0  0  0  0  2  0  0  0  0
    2.1434   -0.3572    0.0000 C   0  0  0  0  0  0  0  2  0  0  0  0
    2.8579   -0.7697    0.0000 C   0  0  0  0  0  0  0  2  0  0  0  0
    2.8579   -1.5947    0.0000 C   0  0  0  0  0  0  0  2  0  0  0  0
    3.5724   -0.3572    0.0000 C   0  0  0  0  0  0  0  2  0  0  0  0
    3.5724    0.4678    0.0000 C   0  0  0  0  0  0  0  2  0  0  0  0
    4.2868    0.8803    0.0000 C   0  0  0  0  0  0  0  2  0  0  0  0
    5.0013    0.4678    0.0000 C   0  0  0  0  0  0  0  2  0  0  0  0
    5.0013   -0.3572    0.0000 C   0  0  0  0  0  0  0  2  0  0  0  0
    4.2868   -0.7697    0.0000 C   0  0  0  0  0  0  0  2  0  0  0  0
    5.7158    0.8803    0.0000 S   0  0  0  0  0  0  0  2  0  0  0  0
    6.1283    0.1658    0.0000 O   0  0  0  0  0  0  0  2  0  0  0  0
    5.3033    1.5947    0.0000 O   0  0  0  0  0  0  0  2  0  0  0  0
    6.4302    1.2928    0.0000 O   0  0  0  0  0  0  0  2  0  0  0  0
    7.1447    0.8803    0.0000 Na  0  0  0  0  0  0  0  2  0  0  0  0
  1  2  1  0        0
  2  3  1  0        0
  3  4  1  0        0
  4  5  1  0        0
  5  6  1  0        0
  6  7  1  0        0
  7  8  1  0        0
  8  9  1  0        0
  9 10  1  0        0
 10 11  1  0        0
 11 12  1  0        0
 12 13  1  0        0
 13 14  1  0        0
 14 15  1  0        0
 15 16  1  0        0
 15 17  1  0        0
 17 18  4  0        0
 18 19  4  0        0
 19 20  4  0        0
 20 21  4  0        0
 21 22  4  0        0
 17 22  4  0        0
 20 23  1  0        0
 23 24  2  0        0
 23 25  2  0        0
 23 26  1  0        0
 26 27  1  0        0
M  END
>  <CAS RN>
NA

>  <SMILES>
CCCCCCCCCCCCCCC(C)c1ccc(cc1)S(=O)(=O)O[Na]

>  <Measured or Estimated Log10(mmol/L)>
-3.565621376

$$$$

CDXL12

 29 29  0  0  0  0  0  0  0  0999 V2000
   -7.8592   -0.7697    0.0000 C   0  0  0  0  0  0  0  2  0  0  0  0
   -7.1447   -0.3572    0.0000 C   0  0  0  0  0  0  0  2  0  0  0  0
   -6.4302   -0.7697    0.0000 C   0  0  0  0  0  0  0  2  0  0  0  0
   -5.7158   -0.3572    0.0000 C   0  0  0  0  0  0  0  2  0  0  0  0
   -5.0013   -0.7697    0.0000 C   0  0  0  0  0  0  0  2  0  0  0  0
   -4.2868   -0.3572    0.0000 C   0  0  0  0  0  0  0  2  0  0  0  0
   -3.5724   -0.7697    0.0000 C   0  0  0  0  0  0  0  2  0  0  0  0
   -2.8579   -0.3572    0.0000 C   0  0  0  0  0  0  0  2  0  0  0  0
   -2.1434   -0.7697    0.0000 C   0  0  0  0  0  0  0  2  0  0  0  0
   -1.4289   -0.3572    0.0000 C   0  0  0  0  0  0  0  2  0  0  0  0
   -0.7145   -0.7697    0.0000 C   0  0  0  0  0  0  0  2  0  0  0  0
    0.0000   -0.3572    0.0000 C   0  0  0  0  0  0  0  2  0  0  0  0
    0.7145   -0.7697    0.0000 C   0  0  0  0  0  0  0  2  0  0  0  0
    1.4289   -0.3572    0.0000 C   0  0  0  0  0  0  0  2  0  0  0  0
    2.1434   -0.7697    0.0000 C   0  0  0  0  0  0  0  2  0  0  0  0
    2.8579   -0.3572    0.0000 C   0  0  0  0  0  0  0  2  0  0  0  0
    3.5724   -0.7697    0.0000 C   0  0  0  0  0  0  0  2  0  0  0  0
    3.5724   -1.5947    0.0000 C   0  0  0  0  0  0  0  2  0  0  0  0
    4.2868   -0.3572    0.0000 C   0  0  0  0  0  0  0  2  0  0  0  0
    4.2868    0.4678    0.0000 C   0  0  0  0  0  0  0  2  0  0  0  0
    5.0013    0.8803    0.0000 C   0  0  0  0  0  0  0  2  0  0  0  0
    5.7158    0.4678    0.0000 C   0  0  0  0  0  0  0  2  0  0  0  0
    5.7158   -0.3572    0.0000 C   0  0  0  0  0  0  0  2  0  0  0  0
    5.0013   -0.7697    0.0000 C   0  0  0  0  0  0  0  2  0  0  0  0
    6.4302    0.8803    0.0000 S   0  0  0  0  0  0  0  2  0  0  0  0
    6.8427    0.1658    0.0000 O   0  0  0  0  0  0  0  2  0  0  0  0
    6.0177    1.5947    0.0000 O   0  0  0  0  0  0  0  2  0  0  0  0
    7.1447    1.2928    0.0000 O   0  0  0  0  0  0  0  2  0  0  0  0
    7.8592    0.8803    0.0000 Na  0  0  0  0  0  0  0  2  0  0  0  0
  1  2  1  0        0
  2  3  1  0        0
  3  4  1  0        0
  4  5  1  0        0
  5  6  1  0        0
  6  7  1  0        0
  7  8  1  0        0
  8  9  1  0        0
  9 10  1  0        0
 10 11  1  0        0
 11 12  1  0        0
 12 13  1  0        0
 13 14  1  0        0
 14 15  1  0        0
 15 16  1  0        0
 16 17  1  0        0
 17 18  1  0        0
 17 19  1  0        0
 19 20  4  0        0
 20 21  4  0        0
 21 22  4  0        0
 22 23  4  0        0
 23 24  4  0        0
 19 24  4  0        0
 22 25  1  0        0
 25 26  2  0        0
 25 27  2  0        0
 25 28  1  0        0
 28 29  1  0        0
M  END
>  <CAS RN>
NA

>  <SMILES>
CCCCCCCCCCCCCCCCC(C)c1ccc(cc1)S(=O)(=O)O[Na]

>  <Measured or Estimated Log10(mmol/L)>
-3.556948426

$$$$

CDXL12

 21 20  0  0  0  0  0  0  0  0999 V2000
   -7.1447   -0.2062    0.0000 C   0  0  0  0  0  0  0  2  0  0  0  0
   -6.4302    0.2062    0.0000 C   0  0  0  0  0  0  0  2  0  0  0  0
   -5.7158   -0.2062    0.0000 C   0  0  0  0  0  0  0  2  0  0  0  0
   -5.0013    0.2062    0.0000 C   0  0  0  0  0  0  0  2  0  0  0  0
   -4.2868   -0.2062    0.0000 C   0  0  0  0  0  0  0  2  0  0  0  0
   -3.5724    0.2062    0.0000 C   0  0  0  0  0  0  0  2  0  0  0  0
   -2.8579   -0.2062    0.0000 C   0  0  0  0  0  0  0  2  0  0  0  0
   -2.1434    0.2062    0.0000 C   0  0  0  0  0  0  0  2  0  0  0  0
   -1.4289   -0.2062    0.0000 C   0  0  0  0  0  0  0  2  0  0  0  0
   -0.7145    0.2062    0.0000 C   0  0  0  0  0  0  0  2  0  0  0  0
   -0.0000   -0.2062    0.0000 C   0  0  0  0  0  0  0  2  0  0  0  0
    0.7145    0.2062    0.0000 C   0  0  0  0  0  0  0  2  0  0  0  0
    1.4289   -0.2062    0.0000 C   0  0  0  0  0  0  0  2  0  0  0  0
    2.1434    0.2062    0.0000 C   0  0  0  0  0  0  0  2  0  0  0  0
    2.8579   -0.2062    0.0000 O   0  0  0  0  0  0  0  2  0  0  0  0
    3.5724    0.2062    0.0000 C   0  0  0  0  0  0  0  2  0  0  0  0
    4.2868   -0.2062    0.0000 C   0  0  0  0  0  0  0  2  0  0  0  0
    5.0013    0.2062    0.0000 O   0  0  0  0  0  0  0  2  0  0  0  0
    5.7158   -0.2062    0.0000 C   0  0  0  0  0  0  0  2  0  0  0  0
    6.4302    0.2062    0.0000 C   0  0  0  0  0  0  0  2  0  0  0  0
    7.1447   -0.2062    0.0000 O   0  0  0  0  0  0  0  2  0  0  0  0
  1  2  1  0        0
  2  3  1  0        0
  3  4  1  0        0
  4  5  1  0        0
  5  6  1  0        0
  6  7  1  0        0
  7  8  1  0        0
  8  9  1  0        0
  9 10  1  0        0
 10 11  1  0        0
 11 12  1  0        0
 12 13  1  0        0
 13 14  1  0        0
 14 15  1  0        0
 15 16  1  0        0
 16 17  1  0        0
 17 18  1  0        0
 18 19  1  0        0
 19 20  1  0        0
 20 21  1  0        0
M  END
>  <CAS RN>
NA

>  <SMILES>
CCCCCCCCCCCCCCOCCOCCO

>  <Measured or Estimated Log10(mmol/L)>
-2.296032504

$$$$

CDXL12

 27 26  0  0  0  0  0  0  0  0999 V2000
   -9.2881   -0.2062    0.0000 C   0  0  0  0  0  0  0  2  0  0  0  0
   -8.5737    0.2062    0.0000 C   0  0  0  0  0  0  0  2  0  0  0  0
   -7.8592   -0.2062    0.0000 C   0  0  0  0  0  0  0  2  0  0  0  0
   -7.1447    0.2062    0.0000 C   0  0  0  0  0  0  0  2  0  0  0  0
   -6.4302   -0.2062    0.0000 C   0  0  0  0  0  0  0  2  0  0  0  0
   -5.7158    0.2062    0.0000 C   0  0  0  0  0  0  0  2  0  0  0  0
   -5.0013   -0.2062    0.0000 C   0  0  0  0  0  0  0  2  0  0  0  0
   -4.2868    0.2062    0.0000 C   0  0  0  0  0  0  0  2  0  0  0  0
   -3.5724   -0.2062    0.0000 C   0  0  0  0  0  0  0  2  0  0  0  0
   -2.8579    0.2062    0.0000 C   0  0  0  0  0  0  0  2  0  0  0  0
   -2.1434   -0.2062    0.0000 C   0  0  0  0  0  0  0  2  0  0  0  0
   -1.4289    0.2062    0.0000 C   0  0  0  0  0  0  0  2  0  0  0  0
   -0.7145   -0.2062    0.0000 C   0  0  0  0  0  0  0  2  0  0  0  0
   -0.0000    0.2062    0.0000 C   0  0  0  0  0  0  0  2  0  0  0  0
    0.7145   -0.2062    0.0000 O   0  0  0  0  0  0  0  2  0  0  0  0
    1.4289    0.2062    0.0000 C   0  0  0  0  0  0  0  2  0  0  0  0
    2.1434   -0.2062    0.0000 C   0  0  0  0  0  0  0  2  0  0  0  0
    2.8579    0.2062    0.0000 O   0  0  0  0  0  0  0  2  0  0  0  0
    3.5724   -0.2062    0.0000 C   0  0  0  0  0  0  0  2  0  0  0  0
    4.2868    0.2062    0.0000 C   0  0  0  0  0  0  0  2  0  0  0  0
    5.0013   -0.2062    0.0000 O   0  0  0  0  0  0  0  2  0  0  0  0
    5.7158    0.2062    0.0000 C   0  0  0  0  0  0  0  2  0  0  0  0
    6.4302   -0.2062    0.0000 C   0  0  0  0  0  0  0  2  0  0  0  0
    7.1447    0.2062    0.0000 O   0  0  0  0  0  0  0  2  0  0  0  0
    7.8592   -0.2062    0.0000 C   0  0  0  0  0  0  0  2  0  0  0  0
    8.5737    0.2062    0.0000 C   0  0  0  0  0  0  0  2  0  0  0  0
    9.2881   -0.2062    0.0000 O   0  0  0  0  0  0  0  2  0  0  0  0
  1  2  1  0        0
  2  3  1  0        0
  3  4  1  0        0
  4  5  1  0        0
  5  6  1  0        0
  6  7  1  0        0
  7  8  1  0        0
  8  9  1  0        0
  9 10  1  0        0
 10 11  1  0        0
 11 12  1  0        0
 12 13  1  0        0
 13 14  1  0        0
 14 15  1  0        0
 15 16  1  0        0
 16 17  1  0        0
 17 18  1  0        0
 18 19  1  0        0
 19 20  1  0        0
 20 21  1  0        0
 21 22  1  0        0
 22 23  1  0        0
 23 24  1  0        0
 24 25  1  0        0
 25 26  1  0        0
 26 27  1  0        0
M  END
>  <CAS RN>
NA

>  <SMILES>
CCCCCCCCCCCCCCOCCOCCOCCOCCO

>  <Measured or Estimated Log10(mmol/L)>
-2.346225122

$$$$

CDXL12

 54 53  0  0  0  0  0  0  0  0999 V2000
  -18.9335   -0.2062    0.0000 C   0  0  0  0  0  0  0  2  0  0  0  0
  -18.2190    0.2062    0.0000 C   0  0  0  0  0  0  0  2  0  0  0  0
  -17.5045   -0.2062    0.0000 C   0  0  0  0  0  0  0  2  0  0  0  0
  -16.7901    0.2062    0.0000 C   0  0  0  0  0  0  0  2  0  0  0  0
  -16.0756   -0.2062    0.0000 C   0  0  0  0  0  0  0  2  0  0  0  0
  -15.3611    0.2062    0.0000 C   0  0  0  0  0  0  0  2  0  0  0  0
  -14.6467   -0.2062    0.0000 C   0  0  0  0  0  0  0  2  0  0  0  0
  -13.9322    0.2062    0.0000 C   0  0  0  0  0  0  0  2  0  0  0  0
  -13.2177   -0.2062    0.0000 C   0  0  0  0  0  0  0  2  0  0  0  0
  -12.5032    0.2062    0.0000 C   0  0  0  0  0  0  0  2  0  0  0  0
  -11.7888   -0.2062    0.0000 C   0  0  0  0  0  0  0  2  0  0  0  0
  -11.0743    0.2062    0.0000 C   0  0  0  0  0  0  0  2  0  0  0  0
  -10.3598   -0.2062    0.0000 C   0  0  0  0  0  0  0  2  0  0  0  0
   -9.6454    0.2062    0.0000 C   0  0  0  0  0  0  0  2  0  0  0  0
   -8.9309   -0.2062    0.0000 O   0  0  0  0  0  0  0  2  0  0  0  0
   -8.2164    0.2062    0.0000 C   0  0  0  0  0  0  0  2  0  0  0  0
   -7.5019   -0.2062    0.0000 C   0  0  0  0  0  0  0  2  0  0  0  0
   -6.7875    0.2062    0.0000 O   0  0  0  0  0  0  0  2  0  0  0  0
   -6.0730   -0.2062    0.0000 C   0  0  0  0  0  0  0  2  0  0  0  0
   -5.3585    0.2062    0.0000 C   0  0  0  0  0  0  0  2  0  0  0  0
   -4.6441   -0.2062    0.0000 O   0  0  0  0  0  0  0  2  0  0  0  0
   -3.9296    0.2062    0.0000 C   0  0  0  0  0  0  0  2  0  0  0  0
   -3.2151   -0.2062    0.0000 C   0  0  0  0  0  0  0  2  0  0  0  0
   -2.5006    0.2062    0.0000 O   0  0  0  0  0  0  0  2  0  0  0  0
   -1.7862   -0.2062    0.0000 C   0  0  0  0  0  0  0  2  0  0  0  0
   -1.0717    0.2062    0.0000 C   0  0  0  0  0  0  0  2  0  0  0  0
   -0.3572   -0.2062    0.0000 O   0  0  0  0  0  0  0  2  0  0  0  0
    0.3572    0.2062    0.0000 C   0  0  0  0  0  0  0  2  0  0  0  0
    1.0717   -0.2062    0.0000 C   0  0  0  0  0  0  0  2  0  0  0  0
    1.7862    0.2062    0.0000 O   0  0  0  0  0  0  0  2  0  0  0  0
    2.5006   -0.2062    0.0000 C   0  0  0  0  0  0  0  2  0  0  0  0
    3.2151    0.2062    0.0000 C   0  0  0  0  0  0  0  2  0  0  0  0
    3.9296   -0.2062    0.0000 O   0  0  0  0  0  0  0  2  0  0  0  0
    4.6441    0.2062    0.0000 C   0  0  0  0  0  0  0  2  0  0  0  0
    5.3585   -0.2062    0.0000 C   0  0  0  0  0  0  0  2  0  0  0  0
    6.0730    0.2062    0.0000 O   0  0  0  0  0  0  0  2  0  0  0  0
    6.7875   -0.2062    0.0000 C   0  0  0  0  0  0  0  2  0  0  0  0
    7.5019    0.2062    0.0000 C   0  0  0  0  0  0  0  2  0  0  0  0
    8.2164   -0.2062    0.0000 O   0  0  0  0  0  0  0  2  0  0  0  0
    8.9309    0.2062    0.0000 C   0  0  0  0  0  0  0  2  0  0  0  0
    9.6454   -0.2062    0.0000 C   0  0  0  0  0  0  0  2  0  0  0  0
   10.3598    0.2062    0.0000 O   0  0  0  0  0  0  0  2  0  0  0  0
   11.0743   -0.2062    0.0000 C   0  0  0  0  0  0  0  2  0  0  0  0
   11.7888    0.2062    0.0000 C   0  0  0  0  0  0  0  2  0  0  0  0
   12.5032   -0.2062    0.0000 O   0  0  0  0  0  0  0  2  0  0  0  0
   13.2177    0.2062    0.0000 C   0  0  0  0  0  0  0  2  0  0  0  0
   13.9322   -0.2062    0.0000 C   0  0  0  0  0  0  0  2  0  0  0  0
   14.6467    0.2062    0.0000 O   0  0  0  0  0  0  0  2  0  0  0  0
   15.3611   -0.2062    0.0000 C   0  0  0  0  0  0  0  2  0  0  0  0
   16.0756    0.2062    0.0000 C   0  0  0  0  0  0  0  2  0  0  0  0
   16.7901   -0.2062    0.0000 O   0  0  0  0  0  0  0  2  0  0  0  0
   17.5045    0.2062    0.0000 C   0  0  0  0  0  0  0  2  0  0  0  0
   18.2190   -0.2062    0.0000 C   0  0  0  0  0  0  0  2  0  0  0  0
   18.9335    0.2062    0.0000 O   0  0  0  0  0  0  0  2  0  0  0  0
  1  2  1  0        0
  2  3  1  0        0
  3  4  1  0        0
  4  5  1  0        0
  5  6  1  0        0
  6  7  1  0        0
  7  8  1  0        0
  8  9  1  0        0
  9 10  1  0        0
 10 11  1  0        0
 11 12  1  0        0
 12 13  1  0        0
 13 14  1  0        0
 14 15  1  0        0
 15 16  1  0        0
 16 17  1  0        0
 17 18  1  0        0
 18 19  1  0        0
 19 20  1  0        0
 20 21  1  0        0
 21 22  1  0        0
 22 23  1  0        0
 23 24  1  0        0
 24 25  1  0        0
 25 26  1  0        0
 26 27  1  0        0
 27 28  1  0        0
 28 29  1  0        0
 29 30  1  0        0
 30 31  1  0        0
 31 32  1  0        0
 32 33  1  0        0
 33 34  1  0        0
 34 35  1  0        0
 35 36  1  0        0
 36 37  1  0        0
 37 38  1  0        0
 38 39  1  0        0
 39 40  1  0        0
 40 41  1  0        0
 41 42  1  0        0
 42 43  1  0        0
 43 44  1  0        0
 44 45  1  0        0
 45 46  1  0        0
 46 47  1  0        0
 47 48  1  0        0
 48 49  1  0        0
 49 50  1  0        0
 50 51  1  0        0
 51 52  1  0        0
 52 53  1  0        0
 53 54  1  0        0
M  END
>  <CAS RN>
NA

>  <SMILES>
CCCCCCCCCCCCCCOCCOCCOCCOCCOCCOCCOCCOCCOCCOCCOCCOCCOCCO

>  <Measured or Estimated Log10(mmol/L)>
-2.816838725

$$$$

CDXL12

 33 32  0  0  0  0  0  0  0  0999 V2000
  -11.4315   -0.2062    0.0000 C   0  0  0  0  0  0  0  2  0  0  0  0
  -10.7171    0.2062    0.0000 C   0  0  0  0  0  0  0  2  0  0  0  0
  -10.0026   -0.2062    0.0000 C   0  0  0  0  0  0  0  2  0  0  0  0
   -9.2881    0.2062    0.0000 C   0  0  0  0  0  0  0  2  0  0  0  0
   -8.5737   -0.2062    0.0000 C   0  0  0  0  0  0  0  2  0  0  0  0
   -7.8592    0.2062    0.0000 C   0  0  0  0  0  0  0  2  0  0  0  0
   -7.1447   -0.2062    0.0000 C   0  0  0  0  0  0  0  2  0  0  0  0
   -6.4302    0.2062    0.0000 C   0  0  0  0  0  0  0  2  0  0  0  0
   -5.7158   -0.2062    0.0000 C   0  0  0  0  0  0  0  2  0  0  0  0
   -5.0013    0.2062    0.0000 C   0  0  0  0  0  0  0  2  0  0  0  0
   -4.2868   -0.2062    0.0000 C   0  0  0  0  0  0  0  2  0  0  0  0
   -3.5724    0.2062    0.0000 O   0  0  0  0  0  0  0  2  0  0  0  0
   -2.8579   -0.2062    0.0000 C   0  0  0  0  0  0  0  2  0  0  0  0
   -2.1434    0.2062    0.0000 C   0  0  0  0  0  0  0  2  0  0  0  0
   -1.4289   -0.2062    0.0000 O   0  0  0  0  0  0  0  2  0  0  0  0
   -0.7145    0.2062    0.0000 C   0  0  0  0  0  0  0  2  0  0  0  0
    0.0000   -0.2062    0.0000 C   0  0  0  0  0  0  0  2  0  0  0  0
    0.7145    0.2062    0.0000 O   0  0  0  0  0  0  0  2  0  0  0  0
    1.4289   -0.2062    0.0000 C   0  0  0  0  0  0  0  2  0  0  0  0
    2.1434    0.2062    0.0000 C   0  0  0  0  0  0  0  2  0  0  0  0
    2.8579   -0.2062    0.0000 O   0  0  0  0  0  0  0  2  0  0  0  0
    3.5724    0.2062    0.0000 C   0  0  0  0  0  0  0  2  0  0  0  0
    4.2868   -0.2062    0.0000 C   0  0  0  0  0  0  0  2  0  0  0  0
    5.0013    0.2062    0.0000 O   0  0  0  0  0  0  0  2  0  0  0  0
    5.7158   -0.2062    0.0000 C   0  0  0  0  0  0  0  2  0  0  0  0
    6.4302    0.2062    0.0000 C   0  0  0  0  0  0  0  2  0  0  0  0
    7.1447   -0.2062    0.0000 O   0  0  0  0  0  0  0  2  0  0  0  0
    7.8592    0.2062    0.0000 C   0  0  0  0  0  0  0  2  0  0  0  0
    8.5737   -0.2062    0.0000 C   0  0  0  0  0  0  0  2  0  0  0  0
    9.2881    0.2062    0.0000 O   0  0  0  0  0  0  0  2  0  0  0  0
   10.0026   -0.2062    0.0000 C   0  0  0  0  0  0  0  2  0  0  0  0
   10.7171    0.2062    0.0000 C   0  0  0  0  0  0  0  2  0  0  0  0
   11.4315   -0.2062    0.0000 O   0  0  0  0  0  0  0  2  0  0  0  0
  1  2  1  0        0
  2  3  1  0        0
  3  4  1  0        0
  4  5  1  0        0
  5  6  1  0        0
  6  7  1  0        0
  7  8  1  0        0
  8  9  1  0        0
  9 10  1  0        0
 10 11  1  0        0
 11 12  1  0        0
 12 13  1  0        0
 13 14  1  0        0
 14 15  1  0        0
 15 16  1  0        0
 16 17  1  0        0
 17 18  1  0        0
 18 19  1  0        0
 19 20  1  0        0
 20 21  1  0        0
 21 22  1  0        0
 22 23  1  0        0
 23 24  1  0        0
 24 25  1  0        0
 25 26  1  0        0
 26 27  1  0        0
 27 28  1  0        0
 28 29  1  0        0
 29 30  1  0        0
 30 31  1  0        0
 31 32  1  0        0
 32 33  1  0        0
M  END
>  <CAS RN>
NA

>  <SMILES>
CCCCCCCCCCCOCCOCCOCCOCCOCCOCCOCCO

>  <Measured or Estimated Log10(mmol/L)>
-2.359639459

$$$$

CDXL12

 39 38  0  0  0  0  0  0  0  0999 V2000
  -13.5749   -0.2062    0.0000 C   0  0  0  0  0  0  0  2  0  0  0  0
  -12.8605    0.2062    0.0000 C   0  0  0  0  0  0  0  2  0  0  0  0
  -12.1460   -0.2062    0.0000 C   0  0  0  0  0  0  0  2  0  0  0  0
  -11.4315    0.2062    0.0000 C   0  0  0  0  0  0  0  2  0  0  0  0
  -10.7171   -0.2062    0.0000 C   0  0  0  0  0  0  0  2  0  0  0  0
  -10.0026    0.2062    0.0000 C   0  0  0  0  0  0  0  2  0  0  0  0
   -9.2881   -0.2062    0.0000 C   0  0  0  0  0  0  0  2  0  0  0  0
   -8.5737    0.2062    0.0000 C   0  0  0  0  0  0  0  2  0  0  0  0
   -7.8592   -0.2062    0.0000 C   0  0  0  0  0  0  0  2  0  0  0  0
   -7.1447    0.2062    0.0000 C   0  0  0  0  0  0  0  2  0  0  0  0
   -6.4302   -0.2062    0.0000 C   0  0  0  0  0  0  0  2  0  0  0  0
   -5.7158    0.2062    0.0000 O   0  0  0  0  0  0  0  2  0  0  0  0
   -5.0013   -0.2062    0.0000 C   0  0  0  0  0  0  0  2  0  0  0  0
   -4.2868    0.2062    0.0000 C   0  0  0  0  0  0  0  2  0  0  0  0
   -3.5724   -0.2062    0.0000 O   0  0  0  0  0  0  0  2  0  0  0  0
   -2.8579    0.2062    0.0000 C   0  0  0  0  0  0  0  2  0  0  0  0
   -2.1434   -0.2062    0.0000 C   0  0  0  0  0  0  0  2  0  0  0  0
   -1.4289    0.2062    0.0000 O   0  0  0  0  0  0  0  2  0  0  0  0
   -0.7145   -0.2062    0.0000 C   0  0  0  0  0  0  0  2  0  0  0  0
   -0.0000    0.2062    0.0000 C   0  0  0  0  0  0  0  2  0  0  0  0
    0.7145   -0.2062    0.0000 O   0  0  0  0  0  0  0  2  0  0  0  0
    1.4289    0.2062    0.0000 C   0  0  0  0  0  0  0  2  0  0  0  0
    2.1434   -0.2062    0.0000 C   0  0  0  0  0  0  0  2  0  0  0  0
    2.8579    0.2062    0.0000 O   0  0  0  0  0  0  0  2  0  0  0  0
    3.5724   -0.2062    0.0000 C   0  0  0  0  0  0  0  2  0  0  0  0
    4.2868    0.2062    0.0000 C   0  0  0  0  0  0  0  2  0  0  0  0
    5.0013   -0.2062    0.0000 O   0  0  0  0  0  0  0  2  0  0  0  0
    5.7158    0.2062    0.0000 C   0  0  0  0  0  0  0  2  0  0  0  0
    6.4302   -0.2062    0.0000 C   0  0  0  0  0  0  0  2  0  0  0  0
    7.1447    0.2062    0.0000 O   0  0  0  0  0  0  0  2  0  0  0  0
    7.8592   -0.2062    0.0000 C   0  0  0  0  0  0  0  2  0  0  0  0
    8.5737    0.2062    0.0000 C   0  0  0  0  0  0  0  2  0  0  0  0
    9.2881   -0.2062    0.0000 O   0  0  0  0  0  0  0  2  0  0  0  0
   10.0026    0.2062    0.0000 C   0  0  0  0  0  0  0  2  0  0  0  0
   10.7171   -0.2062    0.0000 C   0  0  0  0  0  0  0  2  0  0  0  0
   11.4315    0.2062    0.0000 O   0  0  0  0  0  0  0  2  0  0  0  0
   12.1460   -0.2062    0.0000 C   0  0  0  0  0  0  0  2  0  0  0  0
   12.8605    0.2062    0.0000 C   0  0  0  0  0  0  0  2  0  0  0  0
   13.5749   -0.2062    0.0000 O   0  0  0  0  0  0  0  2  0  0  0  0
  1  2  1  0        0
  2  3  1  0        0
  3  4  1  0        0
  4  5  1  0        0
  5  6  1  0        0
  6  7  1  0        0
  7  8  1  0        0
  8  9  1  0        0
  9 10  1  0        0
 10 11  1  0        0
 11 12  1  0        0
 12 13  1  0        0
 13 14  1  0        0
 14 15  1  0        0
 15 16  1  0        0
 16 17  1  0        0
 17 18  1  0        0
 18 19  1  0        0
 19 20  1  0        0
 20 21  1  0        0
 21 22  1  0        0
 22 23  1  0        0
 23 24  1  0        0
 24 25  1  0        0
 25 26  1  0        0
 26 27  1  0        0
 27 28  1  0        0
 28 29  1  0        0
 29 30  1  0        0
 30 31  1  0        0
 31 32  1  0        0
 32 33  1  0        0
 33 34  1  0        0
 34 35  1  0        0
 35 36  1  0        0
 36 37  1  0        0
 37 38  1  0        0
 38 39  1  0        0
M  END
>  <CAS RN>
NA

>  <SMILES>
CCCCCCCCCCCOCCOCCOCCOCCOCCOCCOCCOCCOCCO

>  <Measured or Estimated Log10(mmol/L)>
-1.928876377

$$$$

CDXL12

 14 14  0  0  0  0  0  0  0  0999 V2000
    0.3572    0.0000    0.0000 N   0  0  0  0  0  0  0  2  0  0  0  0
   -0.3572    0.4125    0.0000 C   0  0  0  0  0  0  0  2  0  0  0  0
   -0.3572    1.2375    0.0000 N   0  0  0  0  0  0  0  2  0  0  0  0
   -1.0717   -0.0000    0.0000 N   0  0  0  0  0  0  0  2  0  0  0  0
   -1.0717   -0.8250    0.0000 C   0  0  0  0  0  0  0  2  0  0  0  0
   -1.7862   -1.2375    0.0000 S   0  0  0  0  0  0  0  2  0  0  0  0
   -2.5006   -0.8250    0.0000 C   0  0  0  0  0  0  0  2  0  0  0  0
   -0.3572   -1.2375    0.0000 N   0  0  0  0  0  0  0  2  0  0  0  0
    0.3572   -0.8250    0.0000 C   0  0  0  0  0  0  0  2  0  0  0  0
    1.0717   -1.2375    0.0000 N   0  0  0  0  0  0  0  2  0  0  0  0
    1.7862   -0.8250    0.0000 C   0  0  0  0  0  0  0  2  0  0  0  0
    1.7862    0.0000    0.0000 C   0  0  0  0  0  0  0  2  0  0  0  0
    2.5006   -0.4125    0.0000 C   0  0  0  0  0  0  0  2  0  0  0  0
    2.5006   -1.2375    0.0000 C   0  0  0  0  0  0  0  2  0  0  0  0
  1  2  4  0        0
  2  3  1  0        0
  2  4  4  0        0
  4  5  4  0        0
  5  6  1  0        0
  6  7  1  0        0
  5  8  4  0        0
  8  9  4  0        0
  1  9  4  0        0
  9 10  1  0        0
 10 11  1  0        0
 11 12  1  0        0
 11 13  1  0        0
 11 14  1  0        0
M  END
>  <CAS RN>
NA

>  <SMILES>
n1c(N)nc(SC)nc1NC(C)(C)C

>  <Measured or Estimated Log10(mmol/L)>
-1.287612416

$$$$

CDXL12

 10 10  0  0  0  0  0  0  0  0999 V2000
    1.7862   -0.4125    0.0000 O   0  0  0  0  0  0  0  2  0  0  0  0
    1.0717   -0.8250    0.0000 C   0  0  0  0  0  0  0  2  0  0  0  0
    0.3572   -0.4125    0.0000 C   0  0  0  0  0  0  0  2  0  0  0  0
   -0.3572   -0.8250    0.0000 C   0  0  0  0  0  0  0  2  0  0  0  0
   -1.0717   -0.4125    0.0000 C   0  0  0  0  0  0  0  2  0  0  0  0
   -1.7862   -0.8250    0.0000 Br  0  0  0  0  0  0  0  2  0  0  0  0
   -1.0717    0.4125    0.0000 C   0  0  0  0  0  0  0  2  0  0  0  0
   -0.3572    0.8250    0.0000 C   0  0  0  0  0  0  0  2  0  0  0  0
    0.3572    0.4125    0.0000 C   0  0  0  0  0  0  0  2  0  0  0  0
    1.0717    0.8250    0.0000 Br  0  0  0  0  0  0  0  2  0  0  0  0
  1  2  2  0        0
  2  3  1  0        0
  3  4  4  0        0
  4  5  4  0        0
  5  6  1  0        0
  5  7  4  0        0
  7  8  4  0        0
  8  9  4  0        0
  3  9  4  0        0
  9 10  1  0        0
M  END
>  <CAS RN>
NA

>  <SMILES>
O=Cc1cc(Br)ccc1Br

>  <Measured or Estimated Log10(mmol/L)>
-1.740240924

$$$$

CDXL12

 12 13  0  0  0  0  0  0  0  0999 V2000
    0.8091    0.9810    0.0000 S   0  0  0  0  0  0  0  2  0  0  0  0
    1.2940    0.3135    0.0000 C   0  0  0  0  0  0  0  2  0  0  0  0
    2.1190    0.3135    0.0000 O   0  0  0  0  0  0  0  2  0  0  0  0
    0.8091   -0.3539    0.0000 C   0  0  0  0  0  0  0  2  0  0  0  0
    1.0640   -1.1385    0.0000 O   0  0  0  0  0  0  0  2  0  0  0  0
    0.0244   -0.0990    0.0000 C   0  0  0  0  0  0  0  2  0  0  0  0
    0.0244    0.7260    0.0000 C   0  0  0  0  0  0  0  2  0  0  0  0
   -0.6900    1.1385    0.0000 C   0  0  0  0  0  0  0  2  0  0  0  0
   -1.4045    0.7260    0.0000 C   0  0  0  0  0  0  0  2  0  0  0  0
   -2.1190    1.1385    0.0000 C   0  0  0  0  0  0  0  2  0  0  0  0
   -1.4045   -0.0990    0.0000 C   0  0  0  0  0  0  0  2  0  0  0  0
   -0.6900   -0.5115    0.0000 C   0  0  0  0  0  0  0  2  0  0  0  0
  1  2  1  0        0
  2  3  2  0        0
  2  4  1  0        0
  4  5  2  0        0
  4  6  1  0        0
  6  7  4  0        0
  1  7  1  0        0
  7  8  4  0        0
  8  9  4  0        0
  9 10  1  0        0
  9 11  4  0        0
 11 12  4  0        0
  6 12  4  0        0
M  END
>  <CAS RN>
NA

>  <SMILES>
S1C(=O)C(=O)c2c1cc(C)cc2

>  <Measured or Estimated Log10(mmol/L)>
-1.518535864

$$$$

CDXL12

 12 13  0  0  0  0  0  0  0  0999 V2000
    0.8091    0.9810    0.0000 S   0  0  0  0  0  0  0  2  0  0  0  0
    1.2940    0.3135    0.0000 C   0  0  0  0  0  0  0  2  0  0  0  0
    2.1190    0.3135    0.0000 O   0  0  0  0  0  0  0  2  0  0  0  0
    0.8091   -0.3539    0.0000 C   0  0  0  0  0  0  0  2  0  0  0  0
    1.0640   -1.1385    0.0000 O   0  0  0  0  0  0  0  2  0  0  0  0
    0.0244   -0.0990    0.0000 C   0  0  0  0  0  0  0  2  0  0  0  0
    0.0244    0.7260    0.0000 C   0  0  0  0  0  0  0  2  0  0  0  0
   -0.6900    1.1385    0.0000 C   0  0  0  0  0  0  0  2  0  0  0  0
   -1.4045    0.7260    0.0000 C   0  0  0  0  0  0  0  2  0  0  0  0
   -1.4045   -0.0990    0.0000 C   0  0  0  0  0  0  0  2  0  0  0  0
   -2.1190   -0.5115    0.0000 C   0  0  0  0  0  0  0  2  0  0  0  0
   -0.6900   -0.5115    0.0000 C   0  0  0  0  0  0  0  2  0  0  0  0
  1  2  1  0        0
  2  3  2  0        0
  2  4  1  0        0
  4  5  2  0        0
  4  6  1  0        0
  6  7  4  0        0
  1  7  1  0        0
  7  8  4  0        0
  8  9  4  0        0
  9 10  4  0        0
 10 11  1  0        0
 10 12  4  0        0
  6 12  4  0        0
M  END
>  <CAS RN>
NA

>  <SMILES>
S1C(=O)C(=O)c2c1ccc(C)c2

>  <Measured or Estimated Log10(mmol/L)>
0.209968219

$$$$
