
csChmFindW11180110282D

 14 14  0  0  0  0  0  0  0  0999 V2000
    4.2729    0.9591    0.0005 C   0  0  0  0  0  0  0  0  0  0  0  0
    2.8729    0.9629    0.0006 C   0  0  0  0  0  0  0  0  0  0  0  0
    4.9789    2.1717    0.0000 C   0  0  0  0  0  0  0  0  0  0  0  0
    2.1710    2.1833    0.0002 C   0  0  0  0  0  0  0  0  0  0  0  0
    4.2845    3.3897   -0.0004 C   0  0  0  0  0  0  0  0  0  0  0  0
    2.8836    3.3971   -0.0005 C   0  0  0  0  0  0  0  0  0  0  0  0
    0.6921    2.1791    0.0000 C   0  0  0  0  0  0  0  0  0  0  0  0
    0.0000    3.2071   -0.0003 O   0  0  0  0  0  0  0  0  0  0  0  0
    4.8224    0.0000    0.0009 H   0  0  0  0  0  0  0  0  0  0  0  0
    2.3178    0.0057    0.0011 H   0  0  0  0  0  0  0  0  0  0  0  0
    6.0848    2.1663    0.0000 H   0  0  0  0  0  0  0  0  0  0  0  0
    4.8421    4.3443   -0.0009 H   0  0  0  0  0  0  0  0  0  0  0  0
    2.3223    4.3522   -0.0008 H   0  0  0  0  0  0  0  0  0  0  0  0
    0.2224    1.1623    0.0005 H   0  0  0  0  0  0  0  0  0  0  0  0
  1  2  2  0  0  0  0
  1  3  1  0  0  0  0
  1  9  1  0  0  0  0
  2  4  1  0  0  0  0
  2 10  1  0  0  0  0
  3  5  2  0  0  0  0
  3 11  1  0  0  0  0
  4  6  2  0  0  0  0
  4  7  1  0  0  0  0
  5  6  1  0  0  0  0
  5 12  1  0  0  0  0
  6 13  1  0  0  0  0
  7  8  2  0  0  0  0
  7 14  1  0  0  0  0
M  END
>  <Formula> (1)
C7H6O

>  <Name> (1)
BENZALDEHYDE

>  <CAS-Nr> (1)
100-52-7

>  <EINECS> (1)
202-860-4

>  <21 CFR> (1)
182.60, 582.60

>  <LD50-rat-oral> (1)
1300

>  <Compound classification> (1)
Ar-CHO

>  <Microorganism> (1)
Candida albicans

>  <Microorganism classification> (1)
yeast

>  <PC> (1)
4.4

>  <Method abbreviation> (1)
SDT

>  <Ref-Nr> (1)
1

>  <Marker> (1)
0

>  <Method> (1)
Serial dilution test; Inoculum size: 0.5 McFarland - E.coli + K.pneumoniae + P.aeruginosa + L.monocytogenes 1x10E6, S.aureus + B.subtilis 1x10E5, C.albicans 1x10E4; Medium: Mueller-Hinton Bouillon; pH: 7.4; Incubation-temperature: 37 degrees Centigrade; Incubation-time: 16-18h; Solubility enhancer: Tween 20

>  <Reference> (1)
Pauli, A.: Chemische, physikalische und antimikrobielle Eigenschaften von in aetherischen Oelen vorkommenden Phenylpropanen, Dissertation, Wuerzburg, Germany (1994)

>  <mol_id> (1)
155

>  <LD50-mouse-oral> (1)
28

>  <LD50-mou-ip> (1)
9

>  <MolWeight> (1)
106.12

>  <Nickname> (1)
Benzoic aldehyde

>  <other Names> (1)
artificial essential oil of almond

$$$$

csChmFindW11180110282D

 14 14  0  0  0  0  0  0  0  0999 V2000
    4.2729    0.9591    0.0005 C   0  0  0  0  0  0  0  0  0  0  0  0
    2.8729    0.9629    0.0006 C   0  0  0  0  0  0  0  0  0  0  0  0
    4.9789    2.1717    0.0000 C   0  0  0  0  0  0  0  0  0  0  0  0
    2.1710    2.1833    0.0002 C   0  0  0  0  0  0  0  0  0  0  0  0
    4.2845    3.3897   -0.0004 C   0  0  0  0  0  0  0  0  0  0  0  0
    2.8836    3.3971   -0.0005 C   0  0  0  0  0  0  0  0  0  0  0  0
    0.6921    2.1791    0.0000 C   0  0  0  0  0  0  0  0  0  0  0  0
    0.0000    3.2071   -0.0003 O   0  0  0  0  0  0  0  0  0  0  0  0
    4.8224    0.0000    0.0009 H   0  0  0  0  0  0  0  0  0  0  0  0
    2.3178    0.0057    0.0011 H   0  0  0  0  0  0  0  0  0  0  0  0
    6.0848    2.1663    0.0000 H   0  0  0  0  0  0  0  0  0  0  0  0
    4.8421    4.3443   -0.0009 H   0  0  0  0  0  0  0  0  0  0  0  0
    2.3223    4.3522   -0.0008 H   0  0  0  0  0  0  0  0  0  0  0  0
    0.2224    1.1623    0.0005 H   0  0  0  0  0  0  0  0  0  0  0  0
  1  2  2  0  0  0  0
  1  3  1  0  0  0  0
  1  9  1  0  0  0  0
  2  4  1  0  0  0  0
  2 10  1  0  0  0  0
  3  5  2  0  0  0  0
  3 11  1  0  0  0  0
  4  6  2  0  0  0  0
  4  7  1  0  0  0  0
  5  6  1  0  0  0  0
  5 12  1  0  0  0  0
  6 13  1  0  0  0  0
  7  8  2  0  0  0  0
  7 14  1  0  0  0  0
M  END
>  <Formula> (2)
C7H6O

>  <Name> (2)
BENZALDEHYDE

>  <CAS-Nr> (2)
100-52-7

>  <EINECS> (2)
202-860-4

>  <21 CFR> (2)
182.60, 582.60

>  <LD50-rat-oral> (2)
1300

>  <Compound classification> (2)
Ar-CHO

>  <Microorganism> (2)
Candida albicans

>  <Microorganism classification> (2)
yeast

>  <MMC> (2)
800

>  <Method abbreviation> (2)
SDT

>  <Ref-Nr> (2)
1

>  <Marker> (2)
0

>  <Method> (2)
Serial dilution test; Inoculum size: 0.5 McFarland - E.coli + K.pneumoniae + P.aeruginosa + L.monocytogenes 1x10E6, S.aureus + B.subtilis 1x10E5, C.albicans 1x10E4; Medium: Mueller-Hinton Bouillon; pH: 7.4; Incubation-temperature: 37 degrees Centigrade; Incubation-time: 16-18h; Solubility enhancer: Tween 20

>  <Reference> (2)
Pauli, A.: Chemische, physikalische und antimikrobielle Eigenschaften von in aetherischen Oelen vorkommenden Phenylpropanen, Dissertation, Wuerzburg, Germany (1994)

>  <mol_id> (2)
155

>  <LD50-mouse-oral> (2)
28

>  <LD50-mou-ip> (2)
9

>  <MolWeight> (2)
106.12

>  <Nickname> (2)
Benzoic aldehyde

>  <other Names> (2)
artificial essential oil of almond

$$$$

csChmFindW11180110282D

 14 14  0  0  0  0  0  0  0  0999 V2000
    4.2729    0.9591    0.0005 C   0  0  0  0  0  0  0  0  0  0  0  0
    2.8729    0.9629    0.0006 C   0  0  0  0  0  0  0  0  0  0  0  0
    4.9789    2.1717    0.0000 C   0  0  0  0  0  0  0  0  0  0  0  0
    2.1710    2.1833    0.0002 C   0  0  0  0  0  0  0  0  0  0  0  0
    4.2845    3.3897   -0.0004 C   0  0  0  0  0  0  0  0  0  0  0  0
    2.8836    3.3971   -0.0005 C   0  0  0  0  0  0  0  0  0  0  0  0
    0.6921    2.1791    0.0000 C   0  0  0  0  0  0  0  0  0  0  0  0
    0.0000    3.2071   -0.0003 O   0  0  0  0  0  0  0  0  0  0  0  0
    4.8224    0.0000    0.0009 H   0  0  0  0  0  0  0  0  0  0  0  0
    2.3178    0.0057    0.0011 H   0  0  0  0  0  0  0  0  0  0  0  0
    6.0848    2.1663    0.0000 H   0  0  0  0  0  0  0  0  0  0  0  0
    4.8421    4.3443   -0.0009 H   0  0  0  0  0  0  0  0  0  0  0  0
    2.3223    4.3522   -0.0008 H   0  0  0  0  0  0  0  0  0  0  0  0
    0.2224    1.1623    0.0005 H   0  0  0  0  0  0  0  0  0  0  0  0
  1  2  2  0  0  0  0
  1  3  1  0  0  0  0
  1  9  1  0  0  0  0
  2  4  1  0  0  0  0
  2 10  1  0  0  0  0
  3  5  2  0  0  0  0
  3 11  1  0  0  0  0
  4  6  2  0  0  0  0
  4  7  1  0  0  0  0
  5  6  1  0  0  0  0
  5 12  1  0  0  0  0
  6 13  1  0  0  0  0
  7  8  2  0  0  0  0
  7 14  1  0  0  0  0
M  END
>  <Formula> (3)
C7H6O

>  <Name> (3)
BENZALDEHYDE

>  <CAS-Nr> (3)
100-52-7

>  <EINECS> (3)
202-860-4

>  <21 CFR> (3)
182.60, 582.60

>  <LD50-rat-oral> (3)
1300

>  <Compound classification> (3)
Ar-CHO

>  <Microorganism> (3)
Candida albicans

>  <Microorganism classification> (3)
yeast

>  <MIC> (3)
800

>  <Method abbreviation> (3)
SDT

>  <Ref-Nr> (3)
1

>  <Marker> (3)
0

>  <Method> (3)
Serial dilution test; Inoculum size: 0.5 McFarland - E.coli + K.pneumoniae + P.aeruginosa + L.monocytogenes 1x10E6, S.aureus + B.subtilis 1x10E5, C.albicans 1x10E4; Medium: Mueller-Hinton Bouillon; pH: 7.4; Incubation-temperature: 37 degrees Centigrade; Incubation-time: 16-18h; Solubility enhancer: Tween 20

>  <Reference> (3)
Pauli, A.: Chemische, physikalische und antimikrobielle Eigenschaften von in aetherischen Oelen vorkommenden Phenylpropanen, Dissertation, Wuerzburg, Germany (1994)

>  <mol_id> (3)
155

>  <LD50-mouse-oral> (3)
28

>  <LD50-mou-ip> (3)
9

>  <MolWeight> (3)
106.12

>  <Nickname> (3)
Benzoic aldehyde

>  <other Names> (3)
artificial essential oil of almond

$$$$

csChmFindW11180110282D

 42 42  0  0  0  0  0  0  0  0999 V2000
    8.5061   11.9623   -2.1145 C   0  0  0  0  0  0  0  0  0  0  0  0
    8.5312   10.0233   -1.6302 C   0  0  0  0  0  0  0  0  0  0  0  0
    7.1584   13.0924   -1.6893 C   0  0  0  0  0  0  0  0  0  0  0  0
    6.6826    9.3318   -1.0538 C   0  0  0  0  0  0  0  0  0  0  0  0
    5.5219   12.4737   -0.6996 C   0  0  0  0  0  0  0  0  0  0  0  0
    7.1804   15.0282   -2.1860 C   0  0  0  0  0  0  0  0  0  0  0  0
    5.8061   10.6721    0.2284 C   0  0  0  0  0  0  0  0  0  0  0  0
    6.8029    7.4195   -0.2330 C   0  0  0  0  0  0  0  0  0  0  0  0
    4.9492    6.5026   -0.3726 C   0  0  0  0  0  0  0  0  0  0  0  0
    7.4727    7.4510    1.7099 C   0  0  0  0  0  0  0  0  0  0  0  0
    8.0715    6.4743   -1.3394 O   0  0  0  0  0  0  0  0  0  0  0  0
    4.8440    4.7039    0.5901 C   0  0  0  0  0  0  0  0  0  0  0  0
    3.0889    3.7964    0.2833 C   0  0  0  0  0  0  0  0  0  0  0  0
    2.6080    2.2551    1.1052 C   0  0  0  0  0  0  0  0  0  0  0  0
    0.8415    1.3831    0.7597 C   0  0  0  0  0  0  0  0  0  0  0  0
    3.8034    1.3257    2.4120 C   0  0  0  0  0  0  0  0  0  0  0  0
    9.7027   12.4434   -2.8537 H   0  0  0  0  0  0  0  0  0  0  0  0
    9.5306    9.8092   -0.5099 H   0  0  0  0  0  0  0  0  0  0  0  0
    9.0147    9.2033   -2.8102 H   0  0  0  0  0  0  0  0  0  0  0  0
    5.8192    9.2266   -2.3010 H   0  0  0  0  0  0  0  0  0  0  0  0
    4.3742   12.3654   -1.6851 H   0  0  0  0  0  0  0  0  0  0  0  0
    5.1289   13.5102    0.3327 H   0  0  0  0  0  0  0  0  0  0  0  0
    5.9236   15.3861   -2.9410 H   0  0  0  0  0  0  0  0  0  0  0  0
    8.3685   15.3651   -3.0505 H   0  0  0  0  0  0  0  0  0  0  0  0
    7.2402   15.8816   -0.9423 H   0  0  0  0  0  0  0  0  0  0  0  0
    6.6916   10.8682    1.4400 H   0  0  0  0  0  0  0  0  0  0  0  0
    4.4763   10.1435    0.7153 H   0  0  0  0  0  0  0  0  0  0  0  0
    4.6388    6.3026   -1.8413 H   0  0  0  0  0  0  0  0  0  0  0  0
    3.9011    7.4308    0.1979 H   0  0  0  0  0  0  0  0  0  0  0  0
    7.8542    6.0618    2.1523 H   0  0  0  0  0  0  0  0  0  0  0  0
    6.3952    7.9723    2.6223 H   0  0  0  0  0  0  0  0  0  0  0  0
    8.6877    8.3324    1.8293 H   0  0  0  0  0  0  0  0  0  0  0  0
    8.1419    5.2596   -0.8804 H   0  0  0  0  0  0  0  0  0  0  0  0
    5.0506    4.9048    2.0807 H   0  0  0  0  0  0  0  0  0  0  0  0
    5.9617    3.7941    0.1132 H   0  0  0  0  0  0  0  0  0  0  0  0
    2.1693    4.4577   -0.6797 H   0  0  0  0  0  0  0  0  0  0  0  0
    1.0505    0.0085    0.1717 H   0  0  0  0  0  0  0  0  0  0  0  0
    0.0000    2.1874   -0.1980 H   0  0  0  0  0  0  0  0  0  0  0  0
    0.0785    1.2299    2.0529 H   0  0  0  0  0  0  0  0  0  0  0  0
    3.2263    0.0000    2.8375 H   0  0  0  0  0  0  0  0  0  0  0  0
    3.9941    2.1798    3.6430 H   0  0  0  0  0  0  0  0  0  0  0  0
    5.1631    1.0814    1.8024 H   0  0  0  0  0  0  0  0  0  0  0  0
  1  2  1  0  0  0  0
  1  3  2  0  0  0  0
  1 17  1  6  0  0  0
  2  4  1  0  0  0  0
  2 18  1  1  0  0  0
  2 19  1  6  0  0  0
  3  5  1  1  0  0  0
  3  6  1  0  0  0  0
  4  7  1  1  0  0  0
  4  8  1  0  0  0  0
  4 20  1  6  0  0  0
  5  7  1  1  0  0  0
  5 21  1  6  0  0  0
  5 22  1  1  0  0  0
  6 23  1  6  0  0  0
  6 24  1  6  0  0  0
  6 25  1  1  0  0  0
  7 26  1  1  0  0  0
  7 27  1  0  0  0  0
  8  9  1  0  0  0  0
  8 10  1  1  0  0  0
  8 11  1  6  0  0  0
  9 12  1  1  0  0  0
  9 28  1  6  0  0  0
  9 29  1  0  0  0  0
 10 30  1  0  0  0  0
 10 31  1  1  0  0  0
 10 32  1  0  0  0  0
 11 33  1  0  0  0  0
 12 13  1  0  0  0  0
 12 34  1  1  0  0  0
 12 35  1  0  0  0  0
 13 14  2  0  0  0  0
 13 36  1  6  0  0  0
 14 15  1  0  0  0  0
 14 16  1  1  0  0  0
 15 37  1  0  0  0  0
 15 38  1  6  0  0  0
 15 39  1  1  0  0  0
 16 40  1  0  0  0  0
 16 41  1  1  0  0  0
 16 42  1  0  0  0  0
M  END
>  <Formula> (4)
C15H26O

>  <Name> (4)
(R*,R*)-ALPHA,4-DIMETHYL-ALPHA-(4-METHYL-3-PENTENYL)-3-CYCLOHEXENE-1-METHANOL

>  <CAS-Nr> (4)
515-69-5

>  <EINECS> (4)
208-205-9

>  <LD50-rat-oral> (4)
14850

>  <Compound classification> (4)
Sesquiterpene

>  <Microorganism> (4)
Bacillus subtilis

>  <Microorganism classification> (4)
Bac+

>  <PC> (4)
11.7

>  <Method abbreviation> (4)
SDT

>  <Ref-Nr> (4)
1

>  <Marker> (4)
0

>  <Method> (4)
Serial dilution test; Inoculum size: 0.5 McFarland - E.coli + K.pneumoniae + P.aeruginosa + L.monocytogenes 1x10E6, S.aureus + B.subtilis 1x10E5, C.albicans 1x10E4; Medium: Mueller-Hinton Bouillon; pH: 7.4; Incubation-temperature: 37 degrees Centigrade; Incubation-time: 16-18h; Solubility enhancer: Tween 20

>  <Reference> (4)
Pauli, A.: Chemische, physikalische und antimikrobielle Eigenschaften von in aetherischen Oelen vorkommenden Phenylpropanen, Dissertation, Wuerzburg, Germany (1994)

>  <mol_id> (4)
180

>  <LD50-mouse-oral> (4)
11350

>  <MolWeight> (4)
222.36

>  <Nickname> (4)
alpha-Bisabolol

>  <other Names> (4)
Dragosantol, (-)-alpha-Bisabolol

$$$$

csChmFindW11180110282D

 42 42  0  0  0  0  0  0  0  0999 V2000
    8.5061   11.9623   -2.1145 C   0  0  0  0  0  0  0  0  0  0  0  0
    8.5312   10.0233   -1.6302 C   0  0  0  0  0  0  0  0  0  0  0  0
    7.1584   13.0924   -1.6893 C   0  0  0  0  0  0  0  0  0  0  0  0
    6.6826    9.3318   -1.0538 C   0  0  0  0  0  0  0  0  0  0  0  0
    5.5219   12.4737   -0.6996 C   0  0  0  0  0  0  0  0  0  0  0  0
    7.1804   15.0282   -2.1860 C   0  0  0  0  0  0  0  0  0  0  0  0
    5.8061   10.6721    0.2284 C   0  0  0  0  0  0  0  0  0  0  0  0
    6.8029    7.4195   -0.2330 C   0  0  0  0  0  0  0  0  0  0  0  0
    4.9492    6.5026   -0.3726 C   0  0  0  0  0  0  0  0  0  0  0  0
    7.4727    7.4510    1.7099 C   0  0  0  0  0  0  0  0  0  0  0  0
    8.0715    6.4743   -1.3394 O   0  0  0  0  0  0  0  0  0  0  0  0
    4.8440    4.7039    0.5901 C   0  0  0  0  0  0  0  0  0  0  0  0
    3.0889    3.7964    0.2833 C   0  0  0  0  0  0  0  0  0  0  0  0
    2.6080    2.2551    1.1052 C   0  0  0  0  0  0  0  0  0  0  0  0
    0.8415    1.3831    0.7597 C   0  0  0  0  0  0  0  0  0  0  0  0
    3.8034    1.3257    2.4120 C   0  0  0  0  0  0  0  0  0  0  0  0
    9.7027   12.4434   -2.8537 H   0  0  0  0  0  0  0  0  0  0  0  0
    9.5306    9.8092   -0.5099 H   0  0  0  0  0  0  0  0  0  0  0  0
    9.0147    9.2033   -2.8102 H   0  0  0  0  0  0  0  0  0  0  0  0
    5.8192    9.2266   -2.3010 H   0  0  0  0  0  0  0  0  0  0  0  0
    4.3742   12.3654   -1.6851 H   0  0  0  0  0  0  0  0  0  0  0  0
    5.1289   13.5102    0.3327 H   0  0  0  0  0  0  0  0  0  0  0  0
    5.9236   15.3861   -2.9410 H   0  0  0  0  0  0  0  0  0  0  0  0
    8.3685   15.3651   -3.0505 H   0  0  0  0  0  0  0  0  0  0  0  0
    7.2402   15.8816   -0.9423 H   0  0  0  0  0  0  0  0  0  0  0  0
    6.6916   10.8682    1.4400 H   0  0  0  0  0  0  0  0  0  0  0  0
    4.4763   10.1435    0.7153 H   0  0  0  0  0  0  0  0  0  0  0  0
    4.6388    6.3026   -1.8413 H   0  0  0  0  0  0  0  0  0  0  0  0
    3.9011    7.4308    0.1979 H   0  0  0  0  0  0  0  0  0  0  0  0
    7.8542    6.0618    2.1523 H   0  0  0  0  0  0  0  0  0  0  0  0
    6.3952    7.9723    2.6223 H   0  0  0  0  0  0  0  0  0  0  0  0
    8.6877    8.3324    1.8293 H   0  0  0  0  0  0  0  0  0  0  0  0
    8.1419    5.2596   -0.8804 H   0  0  0  0  0  0  0  0  0  0  0  0
    5.0506    4.9048    2.0807 H   0  0  0  0  0  0  0  0  0  0  0  0
    5.9617    3.7941    0.1132 H   0  0  0  0  0  0  0  0  0  0  0  0
    2.1693    4.4577   -0.6797 H   0  0  0  0  0  0  0  0  0  0  0  0
    1.0505    0.0085    0.1717 H   0  0  0  0  0  0  0  0  0  0  0  0
    0.0000    2.1874   -0.1980 H   0  0  0  0  0  0  0  0  0  0  0  0
    0.0785    1.2299    2.0529 H   0  0  0  0  0  0  0  0  0  0  0  0
    3.2263    0.0000    2.8375 H   0  0  0  0  0  0  0  0  0  0  0  0
    3.9941    2.1798    3.6430 H   0  0  0  0  0  0  0  0  0  0  0  0
    5.1631    1.0814    1.8024 H   0  0  0  0  0  0  0  0  0  0  0  0
  1  2  1  0  0  0  0
  1  3  2  0  0  0  0
  1 17  1  6  0  0  0
  2  4  1  0  0  0  0
  2 18  1  1  0  0  0
  2 19  1  6  0  0  0
  3  5  1  1  0  0  0
  3  6  1  0  0  0  0
  4  7  1  1  0  0  0
  4  8  1  0  0  0  0
  4 20  1  6  0  0  0
  5  7  1  1  0  0  0
  5 21  1  6  0  0  0
  5 22  1  1  0  0  0
  6 23  1  6  0  0  0
  6 24  1  6  0  0  0
  6 25  1  1  0  0  0
  7 26  1  1  0  0  0
  7 27  1  0  0  0  0
  8  9  1  0  0  0  0
  8 10  1  1  0  0  0
  8 11  1  6  0  0  0
  9 12  1  1  0  0  0
  9 28  1  6  0  0  0
  9 29  1  0  0  0  0
 10 30  1  0  0  0  0
 10 31  1  1  0  0  0
 10 32  1  0  0  0  0
 11 33  1  0  0  0  0
 12 13  1  0  0  0  0
 12 34  1  1  0  0  0
 12 35  1  0  0  0  0
 13 14  2  0  0  0  0
 13 36  1  6  0  0  0
 14 15  1  0  0  0  0
 14 16  1  1  0  0  0
 15 37  1  0  0  0  0
 15 38  1  6  0  0  0
 15 39  1  1  0  0  0
 16 40  1  0  0  0  0
 16 41  1  1  0  0  0
 16 42  1  0  0  0  0
M  END
>  <Formula> (5)
C15H26O

>  <Name> (5)
(R*,R*)-ALPHA,4-DIMETHYL-ALPHA-(4-METHYL-3-PENTENYL)-3-CYCLOHEXENE-1-METHANOL

>  <CAS-Nr> (5)
515-69-5

>  <EINECS> (5)
208-205-9

>  <LD50-rat-oral> (5)
14850

>  <Compound classification> (5)
Sesquiterpene

>  <Microorganism> (5)
Bacillus subtilis

>  <Microorganism classification> (5)
Bac+

>  <MMC> (5)
150

>  <Method abbreviation> (5)
SDT

>  <Ref-Nr> (5)
1

>  <Marker> (5)
0

>  <Method> (5)
Serial dilution test; Inoculum size: 0.5 McFarland - E.coli + K.pneumoniae + P.aeruginosa + L.monocytogenes 1x10E6, S.aureus + B.subtilis 1x10E5, C.albicans 1x10E4; Medium: Mueller-Hinton Bouillon; pH: 7.4; Incubation-temperature: 37 degrees Centigrade; Incubation-time: 16-18h; Solubility enhancer: Tween 20

>  <Reference> (5)
Pauli, A.: Chemische, physikalische und antimikrobielle Eigenschaften von in aetherischen Oelen vorkommenden Phenylpropanen, Dissertation, Wuerzburg, Germany (1994)

>  <mol_id> (5)
180

>  <LD50-mouse-oral> (5)
11350

>  <MolWeight> (5)
222.36

>  <Nickname> (5)
alpha-Bisabolol

>  <other Names> (5)
Dragosantol, (-)-alpha-Bisabolol

$$$$

csChmFindW11180110282D

 42 42  0  0  0  0  0  0  0  0999 V2000
    8.5061   11.9623   -2.1145 C   0  0  0  0  0  0  0  0  0  0  0  0
    8.5312   10.0233   -1.6302 C   0  0  0  0  0  0  0  0  0  0  0  0
    7.1584   13.0924   -1.6893 C   0  0  0  0  0  0  0  0  0  0  0  0
    6.6826    9.3318   -1.0538 C   0  0  0  0  0  0  0  0  0  0  0  0
    5.5219   12.4737   -0.6996 C   0  0  0  0  0  0  0  0  0  0  0  0
    7.1804   15.0282   -2.1860 C   0  0  0  0  0  0  0  0  0  0  0  0
    5.8061   10.6721    0.2284 C   0  0  0  0  0  0  0  0  0  0  0  0
    6.8029    7.4195   -0.2330 C   0  0  0  0  0  0  0  0  0  0  0  0
    4.9492    6.5026   -0.3726 C   0  0  0  0  0  0  0  0  0  0  0  0
    7.4727    7.4510    1.7099 C   0  0  0  0  0  0  0  0  0  0  0  0
    8.0715    6.4743   -1.3394 O   0  0  0  0  0  0  0  0  0  0  0  0
    4.8440    4.7039    0.5901 C   0  0  0  0  0  0  0  0  0  0  0  0
    3.0889    3.7964    0.2833 C   0  0  0  0  0  0  0  0  0  0  0  0
    2.6080    2.2551    1.1052 C   0  0  0  0  0  0  0  0  0  0  0  0
    0.8415    1.3831    0.7597 C   0  0  0  0  0  0  0  0  0  0  0  0
    3.8034    1.3257    2.4120 C   0  0  0  0  0  0  0  0  0  0  0  0
    9.7027   12.4434   -2.8537 H   0  0  0  0  0  0  0  0  0  0  0  0
    9.5306    9.8092   -0.5099 H   0  0  0  0  0  0  0  0  0  0  0  0
    9.0147    9.2033   -2.8102 H   0  0  0  0  0  0  0  0  0  0  0  0
    5.8192    9.2266   -2.3010 H   0  0  0  0  0  0  0  0  0  0  0  0
    4.3742   12.3654   -1.6851 H   0  0  0  0  0  0  0  0  0  0  0  0
    5.1289   13.5102    0.3327 H   0  0  0  0  0  0  0  0  0  0  0  0
    5.9236   15.3861   -2.9410 H   0  0  0  0  0  0  0  0  0  0  0  0
    8.3685   15.3651   -3.0505 H   0  0  0  0  0  0  0  0  0  0  0  0
    7.2402   15.8816   -0.9423 H   0  0  0  0  0  0  0  0  0  0  0  0
    6.6916   10.8682    1.4400 H   0  0  0  0  0  0  0  0  0  0  0  0
    4.4763   10.1435    0.7153 H   0  0  0  0  0  0  0  0  0  0  0  0
    4.6388    6.3026   -1.8413 H   0  0  0  0  0  0  0  0  0  0  0  0
    3.9011    7.4308    0.1979 H   0  0  0  0  0  0  0  0  0  0  0  0
    7.8542    6.0618    2.1523 H   0  0  0  0  0  0  0  0  0  0  0  0
    6.3952    7.9723    2.6223 H   0  0  0  0  0  0  0  0  0  0  0  0
    8.6877    8.3324    1.8293 H   0  0  0  0  0  0  0  0  0  0  0  0
    8.1419    5.2596   -0.8804 H   0  0  0  0  0  0  0  0  0  0  0  0
    5.0506    4.9048    2.0807 H   0  0  0  0  0  0  0  0  0  0  0  0
    5.9617    3.7941    0.1132 H   0  0  0  0  0  0  0  0  0  0  0  0
    2.1693    4.4577   -0.6797 H   0  0  0  0  0  0  0  0  0  0  0  0
    1.0505    0.0085    0.1717 H   0  0  0  0  0  0  0  0  0  0  0  0
    0.0000    2.1874   -0.1980 H   0  0  0  0  0  0  0  0  0  0  0  0
    0.0785    1.2299    2.0529 H   0  0  0  0  0  0  0  0  0  0  0  0
    3.2263    0.0000    2.8375 H   0  0  0  0  0  0  0  0  0  0  0  0
    3.9941    2.1798    3.6430 H   0  0  0  0  0  0  0  0  0  0  0  0
    5.1631    1.0814    1.8024 H   0  0  0  0  0  0  0  0  0  0  0  0
  1  2  1  0  0  0  0
  1  3  2  0  0  0  0
  1 17  1  6  0  0  0
  2  4  1  0  0  0  0
  2 18  1  1  0  0  0
  2 19  1  6  0  0  0
  3  5  1  1  0  0  0
  3  6  1  0  0  0  0
  4  7  1  1  0  0  0
  4  8  1  0  0  0  0
  4 20  1  6  0  0  0
  5  7  1  1  0  0  0
  5 21  1  6  0  0  0
  5 22  1  1  0  0  0
  6 23  1  6  0  0  0
  6 24  1  6  0  0  0
  6 25  1  1  0  0  0
  7 26  1  1  0  0  0
  7 27  1  0  0  0  0
  8  9  1  0  0  0  0
  8 10  1  1  0  0  0
  8 11  1  6  0  0  0
  9 12  1  1  0  0  0
  9 28  1  6  0  0  0
  9 29  1  0  0  0  0
 10 30  1  0  0  0  0
 10 31  1  1  0  0  0
 10 32  1  0  0  0  0
 11 33  1  0  0  0  0
 12 13  1  0  0  0  0
 12 34  1  1  0  0  0
 12 35  1  0  0  0  0
 13 14  2  0  0  0  0
 13 36  1  6  0  0  0
 14 15  1  0  0  0  0
 14 16  1  1  0  0  0
 15 37  1  0  0  0  0
 15 38  1  6  0  0  0
 15 39  1  1  0  0  0
 16 40  1  0  0  0  0
 16 41  1  1  0  0  0
 16 42  1  0  0  0  0
M  END
>  <Formula> (6)
C15H26O

>  <Name> (6)
(R*,R*)-ALPHA,4-DIMETHYL-ALPHA-(4-METHYL-3-PENTENYL)-3-CYCLOHEXENE-1-METHANOL

>  <CAS-Nr> (6)
515-69-5

>  <EINECS> (6)
208-205-9

>  <LD50-rat-oral> (6)
14850

>  <Compound classification> (6)
Sesquiterpene

>  <Microorganism> (6)
Bacillus subtilis

>  <Microorganism classification> (6)
Bac+

>  <MIC> (6)
125

>  <Method abbreviation> (6)
SDT

>  <Ref-Nr> (6)
1

>  <Marker> (6)
0

>  <Method> (6)
Serial dilution test; Inoculum size: 0.5 McFarland - E.coli + K.pneumoniae + P.aeruginosa + L.monocytogenes 1x10E6, S.aureus + B.subtilis 1x10E5, C.albicans 1x10E4; Medium: Mueller-Hinton Bouillon; pH: 7.4; Incubation-temperature: 37 degrees Centigrade; Incubation-time: 16-18h; Solubility enhancer: Tween 20

>  <Reference> (6)
Pauli, A.: Chemische, physikalische und antimikrobielle Eigenschaften von in aetherischen Oelen vorkommenden Phenylpropanen, Dissertation, Wuerzburg, Germany (1994)

>  <mol_id> (6)
180

>  <LD50-mouse-oral> (6)
11350

>  <MolWeight> (6)
222.36

>  <Nickname> (6)
alpha-Bisabolol

>  <other Names> (6)
Dragosantol, (-)-alpha-Bisabolol

$$$$

csChmFindW11180110282D

 29 30  0  0  0  0  0  0  0  0999 V2000
    3.0840    4.5474   -0.2239 C   0  0  0  0  0  0  0  0  0  0  0  0
    1.2830    4.1887   -1.2987 C   0  0  0  0  0  0  0  0  0  0  0  0
    4.6659    4.0920   -1.5452 C   0  0  0  0  0  0  0  0  0  0  0  0
    3.1959    6.3930    0.6317 C   0  0  0  0  0  0  0  0  0  0  0  0
    3.1023    2.8552    1.0914 C   0  0  0  0  0  0  0  0  0  0  0  0
    1.2613    2.0877   -1.5408 C   0  0  0  0  0  0  0  0  0  0  0  0
    1.3272    5.1441   -2.9766 O   0  0  0  0  0  0  0  0  0  0  0  0
    4.6161    2.0001   -1.7054 C   0  0  0  0  0  0  0  0  0  0  0  0
    2.9772    1.4501   -0.5082 C   0  0  0  0  0  0  0  0  0  0  0  0
    4.8328    2.6854    2.2058 C   0  0  0  0  0  0  0  0  0  0  0  0
    1.5070    2.7691    2.3997 C   0  0  0  0  0  0  0  0  0  0  0  0
    0.0742    4.6692   -0.4883 H   0  0  0  0  0  0  0  0  0  0  0  0
    5.9937    4.5808   -0.9833 H   0  0  0  0  0  0  0  0  0  0  0  0
    4.4448    4.7626   -2.8952 H   0  0  0  0  0  0  0  0  0  0  0  0
    4.4973    6.5363    1.4131 H   0  0  0  0  0  0  0  0  0  0  0  0
    2.0297    6.6133    1.5886 H   0  0  0  0  0  0  0  0  0  0  0  0
    3.1480    7.4679   -0.4490 H   0  0  0  0  0  0  0  0  0  0  0  0
    1.3276    1.7066   -3.0140 H   0  0  0  0  0  0  0  0  0  0  0  0
    0.0000    1.4801   -0.9456 H   0  0  0  0  0  0  0  0  0  0  0  0
    0.2744    4.7453   -3.6581 H   0  0  0  0  0  0  0  0  0  0  0  0
    5.9017    1.3689   -1.1883 H   0  0  0  0  0  0  0  0  0  0  0  0
    4.4220    1.5554   -3.1483 H   0  0  0  0  0  0  0  0  0  0  0  0
    2.9560    0.0000   -0.0921 H   0  0  0  0  0  0  0  0  0  0  0  0
    4.8867    1.3118    2.8650 H   0  0  0  0  0  0  0  0  0  0  0  0
    4.8489    3.7499    3.2977 H   0  0  0  0  0  0  0  0  0  0  0  0
    6.0873    2.8582    1.3629 H   0  0  0  0  0  0  0  0  0  0  0  0
    1.6198    1.5201    3.2675 H   0  0  0  0  0  0  0  0  0  0  0  0
    0.1645    2.7225    1.6864 H   0  0  0  0  0  0  0  0  0  0  0  0
    1.5201    3.9930    3.3093 H   0  0  0  0  0  0  0  0  0  0  0  0
  1  2  1  6  0  0  0
  1  3  1  6  0  0  0
  1  4  1  0  0  0  0
  1  5  1  1  0  0  0
  2  6  1  0  0  0  0
  2  7  1  6  0  0  0
  2 12  1  1  0  0  0
  3  8  1  0  0  0  0
  3 13  1  0  0  0  0
  3 14  1  6  0  0  0
  4 15  1  1  0  0  0
  4 16  1  1  0  0  0
  4 17  1  6  0  0  0
  5  9  1  6  0  0  0
  5 10  1  1  0  0  0
  5 11  1  1  0  0  0
  6  9  1  1  0  0  0
  6 18  1  6  0  0  0
  6 19  1  0  0  0  0
  7 20  1  6  0  0  0
  8  9  1  1  0  0  0
  8 21  1  0  0  0  0
  8 22  1  6  0  0  0
  9 23  1  0  0  0  0
 10 24  1  0  0  0  0
 10 25  1  1  0  0  0
 10 26  1  6  0  0  0
 11 27  1  1  0  0  0
 11 28  1  6  0  0  0
 11 29  1  1  0  0  0
M  END
>  <Formula> (7)
C10H18O

>  <Name> (7)
(1R,2S,4R)-REL-1,7,7-TRIMETHYLBICYCLO[2.2.1]HEPTAN-2-OL

>  <CAS-Nr> (7)
507-70-0

>  <EINECS> (7)
208-080-0

>  <21 CFR> (7)
172.515

>  <LD50-rat-oral> (7)
500

>  <Compound classification> (7)
Monoterpene

>  <Microorganism> (7)
Eschericia coli

>  <Microorganism type> (7)
ATCC 25922

>  <Microorganism classification> (7)
Bac-

>  <PC> (7)
1.7

>  <Method abbreviation> (7)
SDT

>  <Ref-Nr> (7)
1

>  <Marker> (7)
0

>  <Method> (7)
Serial dilution test; Inoculum size: 0.5 McFarland - E.coli + K.pneumoniae + P.aeruginosa + L.monocytogenes 1x10E6, S.aureus + B.subtilis 1x10E5, C.albicans 1x10E4; Medium: Mueller-Hinton Bouillon; pH: 7.4; Incubation-temperature: 37 degrees Centigrade; Incubation-time: 16-18h; Solubility enhancer: Tween 20

>  <Reference> (7)
Pauli, A.: Chemische, physikalische und antimikrobielle Eigenschaften von in aetherischen Oelen vorkommenden Phenylpropanen, Dissertation, Wuerzburg, Germany (1994)

>  <mol_id> (7)
200

>  <LD50-mouse-oral> (7)
1059

>  <MolWeight> (7)
154.25

>  <Nickname> (7)
DL-Borneol

>  <other Names> (7)
Sumatra camphor, Camphol

$$$$

csChmFindW11180110282D

 29 30  0  0  0  0  0  0  0  0999 V2000
    3.0840    4.5474   -0.2239 C   0  0  0  0  0  0  0  0  0  0  0  0
    1.2830    4.1887   -1.2987 C   0  0  0  0  0  0  0  0  0  0  0  0
    4.6659    4.0920   -1.5452 C   0  0  0  0  0  0  0  0  0  0  0  0
    3.1959    6.3930    0.6317 C   0  0  0  0  0  0  0  0  0  0  0  0
    3.1023    2.8552    1.0914 C   0  0  0  0  0  0  0  0  0  0  0  0
    1.2613    2.0877   -1.5408 C   0  0  0  0  0  0  0  0  0  0  0  0
    1.3272    5.1441   -2.9766 O   0  0  0  0  0  0  0  0  0  0  0  0
    4.6161    2.0001   -1.7054 C   0  0  0  0  0  0  0  0  0  0  0  0
    2.9772    1.4501   -0.5082 C   0  0  0  0  0  0  0  0  0  0  0  0
    4.8328    2.6854    2.2058 C   0  0  0  0  0  0  0  0  0  0  0  0
    1.5070    2.7691    2.3997 C   0  0  0  0  0  0  0  0  0  0  0  0
    0.0742    4.6692   -0.4883 H   0  0  0  0  0  0  0  0  0  0  0  0
    5.9937    4.5808   -0.9833 H   0  0  0  0  0  0  0  0  0  0  0  0
    4.4448    4.7626   -2.8952 H   0  0  0  0  0  0  0  0  0  0  0  0
    4.4973    6.5363    1.4131 H   0  0  0  0  0  0  0  0  0  0  0  0
    2.0297    6.6133    1.5886 H   0  0  0  0  0  0  0  0  0  0  0  0
    3.1480    7.4679   -0.4490 H   0  0  0  0  0  0  0  0  0  0  0  0
    1.3276    1.7066   -3.0140 H   0  0  0  0  0  0  0  0  0  0  0  0
    0.0000    1.4801   -0.9456 H   0  0  0  0  0  0  0  0  0  0  0  0
    0.2744    4.7453   -3.6581 H   0  0  0  0  0  0  0  0  0  0  0  0
    5.9017    1.3689   -1.1883 H   0  0  0  0  0  0  0  0  0  0  0  0
    4.4220    1.5554   -3.1483 H   0  0  0  0  0  0  0  0  0  0  0  0
    2.9560    0.0000   -0.0921 H   0  0  0  0  0  0  0  0  0  0  0  0
    4.8867    1.3118    2.8650 H   0  0  0  0  0  0  0  0  0  0  0  0
    4.8489    3.7499    3.2977 H   0  0  0  0  0  0  0  0  0  0  0  0
    6.0873    2.8582    1.3629 H   0  0  0  0  0  0  0  0  0  0  0  0
    1.6198    1.5201    3.2675 H   0  0  0  0  0  0  0  0  0  0  0  0
    0.1645    2.7225    1.6864 H   0  0  0  0  0  0  0  0  0  0  0  0
    1.5201    3.9930    3.3093 H   0  0  0  0  0  0  0  0  0  0  0  0
  1  2  1  6  0  0  0
  1  3  1  6  0  0  0
  1  4  1  0  0  0  0
  1  5  1  1  0  0  0
  2  6  1  0  0  0  0
  2  7  1  6  0  0  0
  2 12  1  1  0  0  0
  3  8  1  0  0  0  0
  3 13  1  0  0  0  0
  3 14  1  6  0  0  0
  4 15  1  1  0  0  0
  4 16  1  1  0  0  0
  4 17  1  6  0  0  0
  5  9  1  6  0  0  0
  5 10  1  1  0  0  0
  5 11  1  1  0  0  0
  6  9  1  1  0  0  0
  6 18  1  6  0  0  0
  6 19  1  0  0  0  0
  7 20  1  6  0  0  0
  8  9  1  1  0  0  0
  8 21  1  0  0  0  0
  8 22  1  6  0  0  0
  9 23  1  0  0  0  0
 10 24  1  0  0  0  0
 10 25  1  1  0  0  0
 10 26  1  6  0  0  0
 11 27  1  1  0  0  0
 11 28  1  6  0  0  0
 11 29  1  1  0  0  0
M  END
>  <Formula> (8)
C10H18O

>  <Name> (8)
(1R,2S,4R)-REL-1,7,7-TRIMETHYLBICYCLO[2.2.1]HEPTAN-2-OL

>  <CAS-Nr> (8)
507-70-0

>  <EINECS> (8)
208-080-0

>  <21 CFR> (8)
172.515

>  <LD50-rat-oral> (8)
500

>  <Compound classification> (8)
Monoterpene

>  <Microorganism> (8)
Eschericia coli

>  <Microorganism type> (8)
ATCC 25922

>  <Microorganism classification> (8)
Bac-

>  <MMC> (8)
1500

>  <Method abbreviation> (8)
SDT

>  <Ref-Nr> (8)
1

>  <Marker> (8)
0

>  <Method> (8)
Serial dilution test; Inoculum size: 0.5 McFarland - E.coli + K.pneumoniae + P.aeruginosa + L.monocytogenes 1x10E6, S.aureus + B.subtilis 1x10E5, C.albicans 1x10E4; Medium: Mueller-Hinton Bouillon; pH: 7.4; Incubation-temperature: 37 degrees Centigrade; Incubation-time: 16-18h; Solubility enhancer: Tween 20

>  <Reference> (8)
Pauli, A.: Chemische, physikalische und antimikrobielle Eigenschaften von in aetherischen Oelen vorkommenden Phenylpropanen, Dissertation, Wuerzburg, Germany (1994)

>  <mol_id> (8)
200

>  <LD50-mouse-oral> (8)
1059

>  <MolWeight> (8)
154.25

>  <Nickname> (8)
DL-Borneol

>  <other Names> (8)
Sumatra camphor, Camphol

$$$$

csChmFindW11180110282D

 29 30  0  0  0  0  0  0  0  0999 V2000
    3.0840    4.5474   -0.2239 C   0  0  0  0  0  0  0  0  0  0  0  0
    1.2830    4.1887   -1.2987 C   0  0  0  0  0  0  0  0  0  0  0  0
    4.6659    4.0920   -1.5452 C   0  0  0  0  0  0  0  0  0  0  0  0
    3.1959    6.3930    0.6317 C   0  0  0  0  0  0  0  0  0  0  0  0
    3.1023    2.8552    1.0914 C   0  0  0  0  0  0  0  0  0  0  0  0
    1.2613    2.0877   -1.5408 C   0  0  0  0  0  0  0  0  0  0  0  0
    1.3272    5.1441   -2.9766 O   0  0  0  0  0  0  0  0  0  0  0  0
    4.6161    2.0001   -1.7054 C   0  0  0  0  0  0  0  0  0  0  0  0
    2.9772    1.4501   -0.5082 C   0  0  0  0  0  0  0  0  0  0  0  0
    4.8328    2.6854    2.2058 C   0  0  0  0  0  0  0  0  0  0  0  0
    1.5070    2.7691    2.3997 C   0  0  0  0  0  0  0  0  0  0  0  0
    0.0742    4.6692   -0.4883 H   0  0  0  0  0  0  0  0  0  0  0  0
    5.9937    4.5808   -0.9833 H   0  0  0  0  0  0  0  0  0  0  0  0
    4.4448    4.7626   -2.8952 H   0  0  0  0  0  0  0  0  0  0  0  0
    4.4973    6.5363    1.4131 H   0  0  0  0  0  0  0  0  0  0  0  0
    2.0297    6.6133    1.5886 H   0  0  0  0  0  0  0  0  0  0  0  0
    3.1480    7.4679   -0.4490 H   0  0  0  0  0  0  0  0  0  0  0  0
    1.3276    1.7066   -3.0140 H   0  0  0  0  0  0  0  0  0  0  0  0
    0.0000    1.4801   -0.9456 H   0  0  0  0  0  0  0  0  0  0  0  0
    0.2744    4.7453   -3.6581 H   0  0  0  0  0  0  0  0  0  0  0  0
    5.9017    1.3689   -1.1883 H   0  0  0  0  0  0  0  0  0  0  0  0
    4.4220    1.5554   -3.1483 H   0  0  0  0  0  0  0  0  0  0  0  0
    2.9560    0.0000   -0.0921 H   0  0  0  0  0  0  0  0  0  0  0  0
    4.8867    1.3118    2.8650 H   0  0  0  0  0  0  0  0  0  0  0  0
    4.8489    3.7499    3.2977 H   0  0  0  0  0  0  0  0  0  0  0  0
    6.0873    2.8582    1.3629 H   0  0  0  0  0  0  0  0  0  0  0  0
    1.6198    1.5201    3.2675 H   0  0  0  0  0  0  0  0  0  0  0  0
    0.1645    2.7225    1.6864 H   0  0  0  0  0  0  0  0  0  0  0  0
    1.5201    3.9930    3.3093 H   0  0  0  0  0  0  0  0  0  0  0  0
  1  2  1  6  0  0  0
  1  3  1  6  0  0  0
  1  4  1  0  0  0  0
  1  5  1  1  0  0  0
  2  6  1  0  0  0  0
  2  7  1  6  0  0  0
  2 12  1  1  0  0  0
  3  8  1  0  0  0  0
  3 13  1  0  0  0  0
  3 14  1  6  0  0  0
  4 15  1  1  0  0  0
  4 16  1  1  0  0  0
  4 17  1  6  0  0  0
  5  9  1  6  0  0  0
  5 10  1  1  0  0  0
  5 11  1  1  0  0  0
  6  9  1  1  0  0  0
  6 18  1  6  0  0  0
  6 19  1  0  0  0  0
  7 20  1  6  0  0  0
  8  9  1  1  0  0  0
  8 21  1  0  0  0  0
  8 22  1  6  0  0  0
  9 23  1  0  0  0  0
 10 24  1  0  0  0  0
 10 25  1  1  0  0  0
 10 26  1  6  0  0  0
 11 27  1  1  0  0  0
 11 28  1  6  0  0  0
 11 29  1  1  0  0  0
M  END
>  <Formula> (9)
C10H18O

>  <Name> (9)
(1R,2S,4R)-REL-1,7,7-TRIMETHYLBICYCLO[2.2.1]HEPTAN-2-OL

>  <CAS-Nr> (9)
507-70-0

>  <EINECS> (9)
208-080-0

>  <21 CFR> (9)
172.515

>  <LD50-rat-oral> (9)
500

>  <Compound classification> (9)
Monoterpene

>  <Microorganism> (9)
Eschericia coli

>  <Microorganism type> (9)
ATCC 25922

>  <Microorganism classification> (9)
Bac-

>  <MIC> (9)
1000

>  <Method abbreviation> (9)
SDT

>  <Ref-Nr> (9)
1

>  <Marker> (9)
0

>  <Method> (9)
Serial dilution test; Inoculum size: 0.5 McFarland - E.coli + K.pneumoniae + P.aeruginosa + L.monocytogenes 1x10E6, S.aureus + B.subtilis 1x10E5, C.albicans 1x10E4; Medium: Mueller-Hinton Bouillon; pH: 7.4; Incubation-temperature: 37 degrees Centigrade; Incubation-time: 16-18h; Solubility enhancer: Tween 20

>  <Reference> (9)
Pauli, A.: Chemische, physikalische und antimikrobielle Eigenschaften von in aetherischen Oelen vorkommenden Phenylpropanen, Dissertation, Wuerzburg, Germany (1994)

>  <mol_id> (9)
200

>  <LD50-mouse-oral> (9)
1059

>  <MolWeight> (9)
154.25

>  <Nickname> (9)
DL-Borneol

>  <other Names> (9)
Sumatra camphor, Camphol

$$$$

csChmFindW11180110282D

 23 24  0  0  0  0  0  0  0  0999 V2000
    2.4905    4.7705    0.4650 C   0  0  0  0  0  0  0  0  0  0  0  0
    4.1146    4.1972   -0.5443 C   0  0  0  0  0  0  0  0  0  0  0  0
    2.5561    3.3720    1.9218 C   0  0  0  0  0  0  0  0  0  0  0  0
    0.9918    4.0172   -0.5516 C   0  0  0  0  0  0  0  0  0  0  0  0
    2.3873    6.6126    0.9254 C   0  0  0  0  0  0  0  0  0  0  0  0
    4.1313    2.1643   -0.4557 C   0  0  0  0  0  0  0  0  0  0  0  0
    5.1679    5.0892   -1.2663 O   0  0  0  0  0  0  0  0  0  0  0  0
    0.8807    2.2747   -0.4067 C   0  0  0  0  0  0  0  0  0  0  0  0
    2.4786    1.9686    0.5167 C   0  0  0  0  0  0  0  0  0  0  0  0
    5.7120    1.5459    0.4752 C   0  0  0  0  0  0  0  0  0  0  0  0
    4.0865    1.4286   -2.2483 C   0  0  0  0  0  0  0  0  0  0  0  0
    1.4130    3.3995    2.7676 H   0  0  0  0  0  0  0  0  0  0  0  0
    3.7397    3.3918    2.7046 H   0  0  0  0  0  0  0  0  0  0  0  0
    1.2715    6.8448    1.7906 H   0  0  0  0  0  0  0  0  0  0  0  0
    2.2203    7.4039   -0.2569 H   0  0  0  0  0  0  0  0  0  0  0  0
    3.5832    7.0308    1.5913 H   0  0  0  0  0  0  0  0  0  0  0  0
    0.0000    1.3610   -0.9655 H   0  0  0  0  0  0  0  0  0  0  0  0
    5.7233    0.1156    0.5120 H   0  0  0  0  0  0  0  0  0  0  0  0
    5.7654    2.0341    1.8168 H   0  0  0  0  0  0  0  0  0  0  0  0
    6.8803    1.9978   -0.2184 H   0  0  0  0  0  0  0  0  0  0  0  0
    4.1185    0.0000   -2.1937 H   0  0  0  0  0  0  0  0  0  0  0  0
    5.2231    1.8900   -2.9854 H   0  0  0  0  0  0  0  0  0  0  0  0
    2.8979    1.8344   -2.9343 H   0  0  0  0  0  0  0  0  0  0  0  0
  1  2  1  6  0  0  0
  1  3  1  1  0  0  0
  1  4  1  6  0  0  0
  1  5  1  0  0  0  0
  2  6  1  0  0  0  0
  2  7  2  0  0  0  0
  3  9  1  6  0  0  0
  3 12  1  1  0  0  0
  3 13  1  1  0  0  0
  4  8  1  0  0  0  0
  5 14  1  1  0  0  0
  5 15  1  6  0  0  0
  5 16  1  1  0  0  0
  6  9  1  1  0  0  0
  6 10  1  1  0  0  0
  6 11  1  6  0  0  0
  8  9  1  1  0  0  0
  8 17  1  0  0  0  0
 10 18  1  0  0  0  0
 10 19  1  1  0  0  0
 10 20  1  6  0  0  0
 11 21  1  0  0  0  0
 11 22  1  6  0  0  0
 11 23  1  6  0  0  0
M  END
>  <Formula> (10)
C10H16O

>  <Name> (10)
1,3,3-TRIMETHYL-BICYCLO[2.2.1]HEPTAN-2-ONE

>  <CAS-Nr> (10)
1195-79-5

>  <EINECS> (10)
214-804-6

>  <21 CFR> (10)
172.515 (d-Fenchone)

>  <LD50-rat-oral> (10)
6160

>  <Compound classification> (10)
Monoterpene

>  <Microorganism> (10)
Candida albicans

>  <Microorganism classification> (10)
yeast

>  <NIC> (10)
8000

>  <Method abbreviation> (10)
SDT

>  <Ref-Nr> (10)
1

>  <Marker> (10)
0

>  <Method> (10)
Serial dilution test; Inoculum size: 0.5 McFarland - E.coli + K.pneumoniae + P.aeruginosa + L.monocytogenes 1x10E6, S.aureus + B.subtilis 1x10E5, C.albicans 1x10E4; Medium: Mueller-Hinton Bouillon; pH: 7.4; Incubation-temperature: 37 degrees Centigrade; Incubation-time: 16-18h; Solubility enhancer: Tween 20

>  <Reference> (10)
Pauli, A.: Chemische, physikalische und antimikrobielle Eigenschaften von in aetherischen Oelen vorkommenden Phenylpropanen, Dissertation, Wuerzburg, Germany (1994)

>  <mol_id> (10)
211

>  <MolWeight> (10)
152.23

>  <Nickname> (10)
Fenchone

$$$$

csChmFindW11180110282D

 16 15  0  0  0  0  0  0  0  0999 V2000
    6.1027    3.0562    0.0279 C   0  0  0  0  0  0  0  0  0  0  0  0
    4.5092    2.1912    0.0271 C   0  0  0  0  0  0  0  0  0  0  0  0
    7.5772    2.2467    0.0190 C   0  0  0  0  0  0  0  0  0  0  0  0
    3.0341    3.0022    0.0360 C   0  0  0  0  0  0  0  0  0  0  0  0
    9.2077    3.1183    0.0168 C   0  0  0  0  0  0  0  0  0  0  0  0
    1.4142    2.1499    0.0353 C   0  0  0  0  0  0  0  0  0  0  0  0
    0.0000    2.7838    0.0460 O   0  0  0  0  0  0  0  0  0  0  0  0
    1.4690    0.4367    0.0213 O   0  0  0  0  0  0  0  0  0  0  0  0
    6.0552    4.4386    0.0365 H   0  0  0  0  0  0  0  0  0  0  0  0
    4.5470    0.8050    0.0185 H   0  0  0  0  0  0  0  0  0  0  0  0
    7.6265    0.8648    0.0105 H   0  0  0  0  0  0  0  0  0  0  0  0
    2.9370    4.3803    0.0447 H   0  0  0  0  0  0  0  0  0  0  0  0
   10.2671    2.2031    0.0397 H   0  0  0  0  0  0  0  0  0  0  0  0
    9.3236    3.9541    1.1372 H   0  0  0  0  0  0  0  0  0  0  0  0
    9.3389    3.9139   -1.1311 H   0  0  0  0  0  0  0  0  0  0  0  0
    0.3331    0.0000    0.0221 H   0  0  0  0  0  0  0  0  0  0  0  0
  1  2  1  0  0  0  0
  1  3  2  0  0  0  0
  1  9  1  0  0  0  0
  2  4  2  0  0  0  0
  2 10  1  0  0  0  0
  3  5  1  0  0  0  0
  3 11  1  0  0  0  0
  4  6  1  0  0  0  0
  4 12  1  0  0  0  0
  5 13  1  0  0  0  0
  5 14  1  1  0  0  0
  5 15  1  6  0  0  0
  6  7  2  0  0  0  0
  6  8  1  0  0  0  0
  8 16  1  0  0  0  0
M  END
>  <Formula> (11)
C6H8O2

>  <Name> (11)
(E,E)-2,4-HEXADIENOIC ACID

>  <CAS-Nr> (11)
110-44-1

>  <EINECS> (11)
203-768-7

>  <21 CFR> (11)
133.118, 150.161, 182.3089, 150.141, 166.110, 177.2260, 133.123, 133.124, 133.169, 133.173, 133.179, 133.187, 133.188, 172.872, 181.23

>  <LD50-rat-oral> (11)
7360

>  <Compound classification> (11)
Ali-COOH

>  <Microorganism> (11)
Aspergillus niger

>  <Microorganism classification> (11)
fungi

>  <MIC> (11)
800

>  <Method abbreviation> (11)
SDT

>  <Ref-Nr> (11)
124

>  <Marker> (11)
0

>  <Method> (11)
Serial dilution test; pH: 5.0 for acids, cited values

>  <Reference> (11)
Ray, L.L., Bullerman, L.B.: Preventing Growth of Potentially Toxic Molds Using Antifungal Agents; Journal of Food Protection 45, 953-63 (1982)

>  <mol_id> (11)
203

>  <LD50-mouse-oral> (11)
3200

>  <LD50-mou-ip> (11)
2820

>  <MolWeight> (11)
112.12

>  <Nickname> (11)
Sorbic acid

$$$$

csChmFindW11180110282D

 16 15  0  0  0  0  0  0  0  0999 V2000
    6.1027    3.0562    0.0279 C   0  0  0  0  0  0  0  0  0  0  0  0
    4.5092    2.1912    0.0271 C   0  0  0  0  0  0  0  0  0  0  0  0
    7.5772    2.2467    0.0190 C   0  0  0  0  0  0  0  0  0  0  0  0
    3.0341    3.0022    0.0360 C   0  0  0  0  0  0  0  0  0  0  0  0
    9.2077    3.1183    0.0168 C   0  0  0  0  0  0  0  0  0  0  0  0
    1.4142    2.1499    0.0353 C   0  0  0  0  0  0  0  0  0  0  0  0
    0.0000    2.7838    0.0460 O   0  0  0  0  0  0  0  0  0  0  0  0
    1.4690    0.4367    0.0213 O   0  0  0  0  0  0  0  0  0  0  0  0
    6.0552    4.4386    0.0365 H   0  0  0  0  0  0  0  0  0  0  0  0
    4.5470    0.8050    0.0185 H   0  0  0  0  0  0  0  0  0  0  0  0
    7.6265    0.8648    0.0105 H   0  0  0  0  0  0  0  0  0  0  0  0
    2.9370    4.3803    0.0447 H   0  0  0  0  0  0  0  0  0  0  0  0
   10.2671    2.2031    0.0397 H   0  0  0  0  0  0  0  0  0  0  0  0
    9.3236    3.9541    1.1372 H   0  0  0  0  0  0  0  0  0  0  0  0
    9.3389    3.9139   -1.1311 H   0  0  0  0  0  0  0  0  0  0  0  0
    0.3331    0.0000    0.0221 H   0  0  0  0  0  0  0  0  0  0  0  0
  1  2  1  0  0  0  0
  1  3  2  0  0  0  0
  1  9  1  0  0  0  0
  2  4  2  0  0  0  0
  2 10  1  0  0  0  0
  3  5  1  0  0  0  0
  3 11  1  0  0  0  0
  4  6  1  0  0  0  0
  4 12  1  0  0  0  0
  5 13  1  0  0  0  0
  5 14  1  1  0  0  0
  5 15  1  6  0  0  0
  6  7  2  0  0  0  0
  6  8  1  0  0  0  0
  8 16  1  0  0  0  0
M  END
>  <Formula> (12)
C6H8O2

>  <Name> (12)
(E,E)-2,4-HEXADIENOIC ACID

>  <CAS-Nr> (12)
110-44-1

>  <EINECS> (12)
203-768-7

>  <21 CFR> (12)
133.118, 150.161, 182.3089, 150.141, 166.110, 177.2260, 133.123, 133.124, 133.169, 133.173, 133.179, 133.187, 133.188, 172.872, 181.23

>  <LD50-rat-oral> (12)
7360

>  <Compound classification> (12)
Ali-COOH

>  <Microorganism> (12)
Alternaria solani

>  <Microorganism classification> (12)
fungi

>  <MIC> (12)
200

>  <Method abbreviation> (12)
SDT

>  <Ref-Nr> (12)
124

>  <Marker> (12)
0

>  <Method> (12)
Serial dilution test; pH: 5.0 for acids, cited values

>  <Reference> (12)
Ray, L.L., Bullerman, L.B.: Preventing Growth of Potentially Toxic Molds Using Antifungal Agents; Journal of Food Protection 45, 953-63 (1982)

>  <mol_id> (12)
203

>  <LD50-mouse-oral> (12)
3200

>  <LD50-mou-ip> (12)
2820

>  <MolWeight> (12)
112.12

>  <Nickname> (12)
Sorbic acid

$$$$

csChmFindW11180110282D

 29 30  0  0  0  0  0  0  0  0999 V2000
    3.0840    4.5474   -0.2239 C   0  0  0  0  0  0  0  0  0  0  0  0
    1.2830    4.1887   -1.2987 C   0  0  0  0  0  0  0  0  0  0  0  0
    4.6659    4.0920   -1.5452 C   0  0  0  0  0  0  0  0  0  0  0  0
    3.1959    6.3930    0.6317 C   0  0  0  0  0  0  0  0  0  0  0  0
    3.1023    2.8552    1.0914 C   0  0  0  0  0  0  0  0  0  0  0  0
    1.2613    2.0877   -1.5408 C   0  0  0  0  0  0  0  0  0  0  0  0
    1.3272    5.1441   -2.9766 O   0  0  0  0  0  0  0  0  0  0  0  0
    4.6161    2.0001   -1.7054 C   0  0  0  0  0  0  0  0  0  0  0  0
    2.9772    1.4501   -0.5082 C   0  0  0  0  0  0  0  0  0  0  0  0
    4.8328    2.6854    2.2058 C   0  0  0  0  0  0  0  0  0  0  0  0
    1.5070    2.7691    2.3997 C   0  0  0  0  0  0  0  0  0  0  0  0
    0.0742    4.6692   -0.4883 H   0  0  0  0  0  0  0  0  0  0  0  0
    5.9937    4.5808   -0.9833 H   0  0  0  0  0  0  0  0  0  0  0  0
    4.4448    4.7626   -2.8952 H   0  0  0  0  0  0  0  0  0  0  0  0
    4.4973    6.5363    1.4131 H   0  0  0  0  0  0  0  0  0  0  0  0
    2.0297    6.6133    1.5886 H   0  0  0  0  0  0  0  0  0  0  0  0
    3.1480    7.4679   -0.4490 H   0  0  0  0  0  0  0  0  0  0  0  0
    1.3276    1.7066   -3.0140 H   0  0  0  0  0  0  0  0  0  0  0  0
    0.0000    1.4801   -0.9456 H   0  0  0  0  0  0  0  0  0  0  0  0
    0.2744    4.7453   -3.6581 H   0  0  0  0  0  0  0  0  0  0  0  0
    5.9017    1.3689   -1.1883 H   0  0  0  0  0  0  0  0  0  0  0  0
    4.4220    1.5554   -3.1483 H   0  0  0  0  0  0  0  0  0  0  0  0
    2.9560    0.0000   -0.0921 H   0  0  0  0  0  0  0  0  0  0  0  0
    4.8867    1.3118    2.8650 H   0  0  0  0  0  0  0  0  0  0  0  0
    4.8489    3.7499    3.2977 H   0  0  0  0  0  0  0  0  0  0  0  0
    6.0873    2.8582    1.3629 H   0  0  0  0  0  0  0  0  0  0  0  0
    1.6198    1.5201    3.2675 H   0  0  0  0  0  0  0  0  0  0  0  0
    0.1645    2.7225    1.6864 H   0  0  0  0  0  0  0  0  0  0  0  0
    1.5201    3.9930    3.3093 H   0  0  0  0  0  0  0  0  0  0  0  0
  1  2  1  6  0  0  0
  1  3  1  6  0  0  0
  1  4  1  0  0  0  0
  1  5  1  1  0  0  0
  2  6  1  0  0  0  0
  2  7  1  6  0  0  0
  2 12  1  1  0  0  0
  3  8  1  0  0  0  0
  3 13  1  0  0  0  0
  3 14  1  6  0  0  0
  4 15  1  1  0  0  0
  4 16  1  1  0  0  0
  4 17  1  6  0  0  0
  5  9  1  6  0  0  0
  5 10  1  1  0  0  0
  5 11  1  1  0  0  0
  6  9  1  1  0  0  0
  6 18  1  6  0  0  0
  6 19  1  0  0  0  0
  7 20  1  6  0  0  0
  8  9  1  1  0  0  0
  8 21  1  0  0  0  0
  8 22  1  6  0  0  0
  9 23  1  0  0  0  0
 10 24  1  0  0  0  0
 10 25  1  1  0  0  0
 10 26  1  6  0  0  0
 11 27  1  1  0  0  0
 11 28  1  6  0  0  0
 11 29  1  1  0  0  0
M  END
>  <Formula> (13)
C10H18O

>  <Name> (13)
(1R,2S,4R)-REL-1,7,7-TRIMETHYLBICYCLO[2.2.1]HEPTAN-2-OL

>  <CAS-Nr> (13)
507-70-0

>  <EINECS> (13)
208-080-0

>  <21 CFR> (13)
172.515

>  <LD50-rat-oral> (13)
500

>  <Compound classification> (13)
Monoterpene

>  <Microorganism> (13)
Eschericia coli

>  <Microorganism classification> (13)
Bac-

>  <MIC> (13)
500

>  <Method abbreviation> (13)
SDT

>  <Ref-Nr> (13)
169

>  <Marker> (13)
0

>  <Method> (13)
Serial dilution test; method in Japanese - not translated

>  <Reference> (13)
Okazaki, K., Oshima, S.: Antibacterial Activity of Higher Plant. XXV. Antimicrobial Effect of Essential Oils. (6).; Journal of the Pharmaceutical Society of Japan [Yakugaku Zasshi] 73, 690-2 (1953)

>  <mol_id> (13)
200

>  <LD50-mouse-oral> (13)
1059

>  <MolWeight> (13)
154.25

>  <Nickname> (13)
DL-Borneol

>  <other Names> (13)
Sumatra camphor, Camphol

$$$$

csChmFindW11180110282D

 18 18  0  0  0  0  0  0  0  0999 V2000
    5.5201    1.0288    0.0024 C   0  0  0  0  0  0  0  0  0  0  0  0
    7.0065    1.0603   -0.1327 C   0  0  0  0  0  0  0  0  0  0  0  0
    4.7184    2.2938   -0.1108 C   0  0  0  0  0  0  0  0  0  0  0  0
    7.7115    2.3521   -0.3856 C   0  0  0  0  0  0  0  0  0  0  0  0
    5.4396    3.5906   -0.3680 C   0  0  0  0  0  0  0  0  0  0  0  0
    3.1689    2.3132    0.0264 C   0  0  0  0  0  0  0  0  0  0  0  0
    6.9238    3.6170   -0.5038 C   0  0  0  0  0  0  0  0  0  0  0  0
    2.3423    1.1833    0.3517 C   0  0  0  0  0  0  0  0  0  0  0  0
    0.7792    1.3062    0.4671 C   0  0  0  0  0  0  0  0  0  0  0  0
    0.0000    0.2794    0.7569 O   0  0  0  0  0  0  0  0  0  0  0  0
    4.9787    0.0000    0.1979 H   0  0  0  0  0  0  0  0  0  0  0  0
    7.6236    0.0606   -0.0398 H   0  0  0  0  0  0  0  0  0  0  0  0
    8.8846    2.3752   -0.4925 H   0  0  0  0  0  0  0  0  0  0  0  0
    4.8243    4.5916   -0.4624 H   0  0  0  0  0  0  0  0  0  0  0  0
    2.6684    3.3727   -0.1583 H   0  0  0  0  0  0  0  0  0  0  0  0
    7.4771    4.6378   -0.7050 H   0  0  0  0  0  0  0  0  0  0  0  0
    2.7813    0.1058    0.5513 H   0  0  0  0  0  0  0  0  0  0  0  0
    0.3244    2.3932    0.2762 H   0  0  0  0  0  0  0  0  0  0  0  0
  1  2  2  0  0  0  0
  1  3  1  0  0  0  0
  1 11  1  0  0  0  0
  2  4  1  0  0  0  0
  2 12  1  0  0  0  0
  3  5  2  0  0  0  0
  3  6  1  0  0  0  0
  4  7  2  0  0  0  0
  4 13  1  0  0  0  0
  5  7  1  0  0  0  0
  5 14  1  0  0  0  0
  6  8  2  0  0  0  0
  6 15  1  0  0  0  0
  7 16  1  0  0  0  0
  8  9  1  0  0  0  0
  8 17  1  0  0  0  0
  9 10  2  0  0  0  0
  9 18  1  0  0  0  0
M  END
>  <Formula> (14)
C9H8O

>  <Name> (14)
3-PHENYL-2-PROPENAL

>  <CAS-Nr> (14)
104-55-2

>  <EINECS> (14)
203-213-9

>  <21 CFR> (14)
182.60, 582.60

>  <LD50-rat-oral> (14)
2220

>  <Compound classification> (14)
Phenylpropane

>  <Microorganism> (14)
Bacillus sp.

>  <Microorganism type> (14)
spore-former

>  <Microorganism classification> (14)
Bac+

>  <NIC> (14)
500

>  <Method abbreviation> (14)
SDT

>  <Ref-Nr> (14)
236

>  <Marker> (14)
0

>  <Method> (14)
Serial dilution test; Inoculum size: loopful; Medium: tomato-bouillon; pH: acidic; Incubation-temperature: 37 degrees Centigrade; Incubation-time: 3d; Solubility enhancer: none

>  <Reference> (14)
Hoffmann, C., Evans, A.C.: The Use of Spices as Preservatives; The Journal of Industrial and Engineering Chemistry 3, 835-8 (1911)

>  <mol_id> (14)
556

>  <LD50-mouse-oral> (14)
2225

>  <LD50-mou-ip> (14)
610

>  <MolWeight> (14)
132.16

>  <Nickname> (14)
Cinnamic aldehyde

>  <LD50-mou-iv> (14)
75

$$$$

csChmFindW11180110282D

 18 18  0  0  0  0  0  0  0  0999 V2000
    5.5201    1.0288    0.0024 C   0  0  0  0  0  0  0  0  0  0  0  0
    7.0065    1.0603   -0.1327 C   0  0  0  0  0  0  0  0  0  0  0  0
    4.7184    2.2938   -0.1108 C   0  0  0  0  0  0  0  0  0  0  0  0
    7.7115    2.3521   -0.3856 C   0  0  0  0  0  0  0  0  0  0  0  0
    5.4396    3.5906   -0.3680 C   0  0  0  0  0  0  0  0  0  0  0  0
    3.1689    2.3132    0.0264 C   0  0  0  0  0  0  0  0  0  0  0  0
    6.9238    3.6170   -0.5038 C   0  0  0  0  0  0  0  0  0  0  0  0
    2.3423    1.1833    0.3517 C   0  0  0  0  0  0  0  0  0  0  0  0
    0.7792    1.3062    0.4671 C   0  0  0  0  0  0  0  0  0  0  0  0
    0.0000    0.2794    0.7569 O   0  0  0  0  0  0  0  0  0  0  0  0
    4.9787    0.0000    0.1979 H   0  0  0  0  0  0  0  0  0  0  0  0
    7.6236    0.0606   -0.0398 H   0  0  0  0  0  0  0  0  0  0  0  0
    8.8846    2.3752   -0.4925 H   0  0  0  0  0  0  0  0  0  0  0  0
    4.8243    4.5916   -0.4624 H   0  0  0  0  0  0  0  0  0  0  0  0
    2.6684    3.3727   -0.1583 H   0  0  0  0  0  0  0  0  0  0  0  0
    7.4771    4.6378   -0.7050 H   0  0  0  0  0  0  0  0  0  0  0  0
    2.7813    0.1058    0.5513 H   0  0  0  0  0  0  0  0  0  0  0  0
    0.3244    2.3932    0.2762 H   0  0  0  0  0  0  0  0  0  0  0  0
  1  2  2  0  0  0  0
  1  3  1  0  0  0  0
  1 11  1  0  0  0  0
  2  4  1  0  0  0  0
  2 12  1  0  0  0  0
  3  5  2  0  0  0  0
  3  6  1  0  0  0  0
  4  7  2  0  0  0  0
  4 13  1  0  0  0  0
  5  7  1  0  0  0  0
  5 14  1  0  0  0  0
  6  8  2  0  0  0  0
  6 15  1  0  0  0  0
  7 16  1  0  0  0  0
  8  9  1  0  0  0  0
  8 17  1  0  0  0  0
  9 10  2  0  0  0  0
  9 18  1  0  0  0  0
M  END
>  <Formula> (15)
C9H8O

>  <Name> (15)
3-PHENYL-2-PROPENAL

>  <CAS-Nr> (15)
104-55-2

>  <EINECS> (15)
203-213-9

>  <21 CFR> (15)
182.60, 582.60

>  <LD50-rat-oral> (15)
2220

>  <Compound classification> (15)
Phenylpropane

>  <Microorganism> (15)
Bacillus sp.

>  <Microorganism type> (15)
in chains

>  <Microorganism classification> (15)
Bac+

>  <NIC> (15)
500

>  <Method abbreviation> (15)
SDT

>  <Ref-Nr> (15)
236

>  <Marker> (15)
0

>  <Method> (15)
Serial dilution test; Inoculum size: loopful; Medium: tomato-bouillon; pH: acidic; Incubation-temperature: 37 degrees Centigrade; Incubation-time: 3d; Solubility enhancer: none

>  <Reference> (15)
Hoffmann, C., Evans, A.C.: The Use of Spices as Preservatives; The Journal of Industrial and Engineering Chemistry 3, 835-8 (1911)

>  <mol_id> (15)
556

>  <LD50-mouse-oral> (15)
2225

>  <LD50-mou-ip> (15)
610

>  <MolWeight> (15)
132.16

>  <Nickname> (15)
Cinnamic aldehyde

>  <LD50-mou-iv> (15)
75

$$$$

csChmFindW11180110282D

 18 18  0  0  0  0  0  0  0  0999 V2000
    5.5201    1.0288    0.0024 C   0  0  0  0  0  0  0  0  0  0  0  0
    7.0065    1.0603   -0.1327 C   0  0  0  0  0  0  0  0  0  0  0  0
    4.7184    2.2938   -0.1108 C   0  0  0  0  0  0  0  0  0  0  0  0
    7.7115    2.3521   -0.3856 C   0  0  0  0  0  0  0  0  0  0  0  0
    5.4396    3.5906   -0.3680 C   0  0  0  0  0  0  0  0  0  0  0  0
    3.1689    2.3132    0.0264 C   0  0  0  0  0  0  0  0  0  0  0  0
    6.9238    3.6170   -0.5038 C   0  0  0  0  0  0  0  0  0  0  0  0
    2.3423    1.1833    0.3517 C   0  0  0  0  0  0  0  0  0  0  0  0
    0.7792    1.3062    0.4671 C   0  0  0  0  0  0  0  0  0  0  0  0
    0.0000    0.2794    0.7569 O   0  0  0  0  0  0  0  0  0  0  0  0
    4.9787    0.0000    0.1979 H   0  0  0  0  0  0  0  0  0  0  0  0
    7.6236    0.0606   -0.0398 H   0  0  0  0  0  0  0  0  0  0  0  0
    8.8846    2.3752   -0.4925 H   0  0  0  0  0  0  0  0  0  0  0  0
    4.8243    4.5916   -0.4624 H   0  0  0  0  0  0  0  0  0  0  0  0
    2.6684    3.3727   -0.1583 H   0  0  0  0  0  0  0  0  0  0  0  0
    7.4771    4.6378   -0.7050 H   0  0  0  0  0  0  0  0  0  0  0  0
    2.7813    0.1058    0.5513 H   0  0  0  0  0  0  0  0  0  0  0  0
    0.3244    2.3932    0.2762 H   0  0  0  0  0  0  0  0  0  0  0  0
  1  2  2  0  0  0  0
  1  3  1  0  0  0  0
  1 11  1  0  0  0  0
  2  4  1  0  0  0  0
  2 12  1  0  0  0  0
  3  5  2  0  0  0  0
  3  6  1  0  0  0  0
  4  7  2  0  0  0  0
  4 13  1  0  0  0  0
  5  7  1  0  0  0  0
  5 14  1  0  0  0  0
  6  8  2  0  0  0  0
  6 15  1  0  0  0  0
  7 16  1  0  0  0  0
  8  9  1  0  0  0  0
  8 17  1  0  0  0  0
  9 10  2  0  0  0  0
  9 18  1  0  0  0  0
M  END
>  <Formula> (16)
C9H8O

>  <Name> (16)
3-PHENYL-2-PROPENAL

>  <CAS-Nr> (16)
104-55-2

>  <EINECS> (16)
203-213-9

>  <21 CFR> (16)
182.60, 582.60

>  <LD50-rat-oral> (16)
2220

>  <Compound classification> (16)
Phenylpropane

>  <Microorganism> (16)
Bacillus sp.

>  <Publication strain name> (16)
blunt bacillus

>  <Microorganism classification> (16)
Bac+

>  <MIC> (16)
250

>  <Method abbreviation> (16)
SDT

>  <Ref-Nr> (16)
236

>  <Marker> (16)
0

>  <Method> (16)
Serial dilution test; Inoculum size: loopful; Medium: tomato-bouillon; pH: acidic; Incubation-temperature: 37 degrees Centigrade; Incubation-time: 3d; Solubility enhancer: none

>  <Reference> (16)
Hoffmann, C., Evans, A.C.: The Use of Spices as Preservatives; The Journal of Industrial and Engineering Chemistry 3, 835-8 (1911)

>  <mol_id> (16)
556

>  <LD50-mouse-oral> (16)
2225

>  <LD50-mou-ip> (16)
610

>  <MolWeight> (16)
132.16

>  <Nickname> (16)
Cinnamic aldehyde

>  <LD50-mou-iv> (16)
75

$$$$

csChmFindW11180110282D

 18 18  0  0  0  0  0  0  0  0999 V2000
    5.5201    1.0288    0.0024 C   0  0  0  0  0  0  0  0  0  0  0  0
    7.0065    1.0603   -0.1327 C   0  0  0  0  0  0  0  0  0  0  0  0
    4.7184    2.2938   -0.1108 C   0  0  0  0  0  0  0  0  0  0  0  0
    7.7115    2.3521   -0.3856 C   0  0  0  0  0  0  0  0  0  0  0  0
    5.4396    3.5906   -0.3680 C   0  0  0  0  0  0  0  0  0  0  0  0
    3.1689    2.3132    0.0264 C   0  0  0  0  0  0  0  0  0  0  0  0
    6.9238    3.6170   -0.5038 C   0  0  0  0  0  0  0  0  0  0  0  0
    2.3423    1.1833    0.3517 C   0  0  0  0  0  0  0  0  0  0  0  0
    0.7792    1.3062    0.4671 C   0  0  0  0  0  0  0  0  0  0  0  0
    0.0000    0.2794    0.7569 O   0  0  0  0  0  0  0  0  0  0  0  0
    4.9787    0.0000    0.1979 H   0  0  0  0  0  0  0  0  0  0  0  0
    7.6236    0.0606   -0.0398 H   0  0  0  0  0  0  0  0  0  0  0  0
    8.8846    2.3752   -0.4925 H   0  0  0  0  0  0  0  0  0  0  0  0
    4.8243    4.5916   -0.4624 H   0  0  0  0  0  0  0  0  0  0  0  0
    2.6684    3.3727   -0.1583 H   0  0  0  0  0  0  0  0  0  0  0  0
    7.4771    4.6378   -0.7050 H   0  0  0  0  0  0  0  0  0  0  0  0
    2.7813    0.1058    0.5513 H   0  0  0  0  0  0  0  0  0  0  0  0
    0.3244    2.3932    0.2762 H   0  0  0  0  0  0  0  0  0  0  0  0
  1  2  2  0  0  0  0
  1  3  1  0  0  0  0
  1 11  1  0  0  0  0
  2  4  1  0  0  0  0
  2 12  1  0  0  0  0
  3  5  2  0  0  0  0
  3  6  1  0  0  0  0
  4  7  2  0  0  0  0
  4 13  1  0  0  0  0
  5  7  1  0  0  0  0
  5 14  1  0  0  0  0
  6  8  2  0  0  0  0
  6 15  1  0  0  0  0
  7 16  1  0  0  0  0
  8  9  1  0  0  0  0
  8 17  1  0  0  0  0
  9 10  2  0  0  0  0
  9 18  1  0  0  0  0
M  END
>  <Formula> (17)
C9H8O

>  <Name> (17)
3-PHENYL-2-PROPENAL

>  <CAS-Nr> (17)
104-55-2

>  <EINECS> (17)
203-213-9

>  <21 CFR> (17)
182.60, 582.60

>  <LD50-rat-oral> (17)
2220

>  <Compound classification> (17)
Phenylpropane

>  <Microorganism> (17)
Bacillus sp.

>  <Microorganism type> (17)
spore-former

>  <Microorganism classification> (17)
Bac+

>  <MIC> (17)
250

>  <Method abbreviation> (17)
SDT

>  <Ref-Nr> (17)
236

>  <Marker> (17)
0

>  <Method> (17)
Serial dilution test; Inoculum size: loopful; Medium: tomato-bouillon; pH: acidic; Incubation-temperature: 37 degrees Centigrade; Incubation-time: 3d; Solubility enhancer: none

>  <Reference> (17)
Hoffmann, C., Evans, A.C.: The Use of Spices as Preservatives; The Journal of Industrial and Engineering Chemistry 3, 835-8 (1911)

>  <mol_id> (17)
556

>  <LD50-mouse-oral> (17)
2225

>  <LD50-mou-ip> (17)
610

>  <MolWeight> (17)
132.16

>  <Nickname> (17)
Cinnamic aldehyde

>  <LD50-mou-iv> (17)
75

$$$$

csChmFindW11180110282D

 16 15  0  0  0  0  0  0  0  0999 V2000
    6.1027    3.0562    0.0279 C   0  0  0  0  0  0  0  0  0  0  0  0
    4.5092    2.1912    0.0271 C   0  0  0  0  0  0  0  0  0  0  0  0
    7.5772    2.2467    0.0190 C   0  0  0  0  0  0  0  0  0  0  0  0
    3.0341    3.0022    0.0360 C   0  0  0  0  0  0  0  0  0  0  0  0
    9.2077    3.1183    0.0168 C   0  0  0  0  0  0  0  0  0  0  0  0
    1.4142    2.1499    0.0353 C   0  0  0  0  0  0  0  0  0  0  0  0
    0.0000    2.7838    0.0460 O   0  0  0  0  0  0  0  0  0  0  0  0
    1.4690    0.4367    0.0213 O   0  0  0  0  0  0  0  0  0  0  0  0
    6.0552    4.4386    0.0365 H   0  0  0  0  0  0  0  0  0  0  0  0
    4.5470    0.8050    0.0185 H   0  0  0  0  0  0  0  0  0  0  0  0
    7.6265    0.8648    0.0105 H   0  0  0  0  0  0  0  0  0  0  0  0
    2.9370    4.3803    0.0447 H   0  0  0  0  0  0  0  0  0  0  0  0
   10.2671    2.2031    0.0397 H   0  0  0  0  0  0  0  0  0  0  0  0
    9.3236    3.9541    1.1372 H   0  0  0  0  0  0  0  0  0  0  0  0
    9.3389    3.9139   -1.1311 H   0  0  0  0  0  0  0  0  0  0  0  0
    0.3331    0.0000    0.0221 H   0  0  0  0  0  0  0  0  0  0  0  0
  1  2  1  0  0  0  0
  1  3  2  0  0  0  0
  1  9  1  0  0  0  0
  2  4  2  0  0  0  0
  2 10  1  0  0  0  0
  3  5  1  0  0  0  0
  3 11  1  0  0  0  0
  4  6  1  0  0  0  0
  4 12  1  0  0  0  0
  5 13  1  0  0  0  0
  5 14  1  1  0  0  0
  5 15  1  6  0  0  0
  6  7  2  0  0  0  0
  6  8  1  0  0  0  0
  8 16  1  0  0  0  0
M  END
>  <Formula> (18)
C6H8O2

>  <Name> (18)
(E,E)-2,4-HEXADIENOIC ACID

>  <CAS-Nr> (18)
110-44-1

>  <EINECS> (18)
203-768-7

>  <21 CFR> (18)
133.118, 150.161, 182.3089, 150.141, 166.110, 177.2260, 133.123, 133.124, 133.169, 133.173, 133.179, 133.187, 133.188, 172.872, 181.23

>  <LD50-rat-oral> (18)
7360

>  <Compound classification> (18)
Ali-COOH

>  <Microorganism> (18)
Aspergillus niger

>  <Microorganism classification> (18)
fungi

>  <MIC> (18)
350

>  <Annotation> (18)
pH=6.0, MIC: range 200-500 ppm

>  <Method abbreviation> (18)
SDT

>  <Ref-Nr> (18)
237

>  <Marker> (18)
0

>  <Method> (18)
Serial dilution test; Inoculum size: 10E6 cfu/ml; Medium: CSB; pH: ---; Incubation-temperature: 37 degrees Centigrade; Incubation-time: 24-72h; Solubility enhancer: not given

>  <Reference> (18)
Wallhaeusser, K.H.: Praxis der Sterilisation-Desinfektion-Konservierung-Keimidentifizierung-Betriebshygiene; Georg Thieme Verlag Stuttgart-New York (1984)

>  <mol_id> (18)
203

>  <LD50-mouse-oral> (18)
3200

>  <LD50-mou-ip> (18)
2820

>  <MolWeight> (18)
112.12

>  <Nickname> (18)
Sorbic acid

$$$$

csChmFindW11180110282D

 16 15  0  0  0  0  0  0  0  0999 V2000
    6.1027    3.0562    0.0279 C   0  0  0  0  0  0  0  0  0  0  0  0
    4.5092    2.1912    0.0271 C   0  0  0  0  0  0  0  0  0  0  0  0
    7.5772    2.2467    0.0190 C   0  0  0  0  0  0  0  0  0  0  0  0
    3.0341    3.0022    0.0360 C   0  0  0  0  0  0  0  0  0  0  0  0
    9.2077    3.1183    0.0168 C   0  0  0  0  0  0  0  0  0  0  0  0
    1.4142    2.1499    0.0353 C   0  0  0  0  0  0  0  0  0  0  0  0
    0.0000    2.7838    0.0460 O   0  0  0  0  0  0  0  0  0  0  0  0
    1.4690    0.4367    0.0213 O   0  0  0  0  0  0  0  0  0  0  0  0
    6.0552    4.4386    0.0365 H   0  0  0  0  0  0  0  0  0  0  0  0
    4.5470    0.8050    0.0185 H   0  0  0  0  0  0  0  0  0  0  0  0
    7.6265    0.8648    0.0105 H   0  0  0  0  0  0  0  0  0  0  0  0
    2.9370    4.3803    0.0447 H   0  0  0  0  0  0  0  0  0  0  0  0
   10.2671    2.2031    0.0397 H   0  0  0  0  0  0  0  0  0  0  0  0
    9.3236    3.9541    1.1372 H   0  0  0  0  0  0  0  0  0  0  0  0
    9.3389    3.9139   -1.1311 H   0  0  0  0  0  0  0  0  0  0  0  0
    0.3331    0.0000    0.0221 H   0  0  0  0  0  0  0  0  0  0  0  0
  1  2  1  0  0  0  0
  1  3  2  0  0  0  0
  1  9  1  0  0  0  0
  2  4  2  0  0  0  0
  2 10  1  0  0  0  0
  3  5  1  0  0  0  0
  3 11  1  0  0  0  0
  4  6  1  0  0  0  0
  4 12  1  0  0  0  0
  5 13  1  0  0  0  0
  5 14  1  1  0  0  0
  5 15  1  6  0  0  0
  6  7  2  0  0  0  0
  6  8  1  0  0  0  0
  8 16  1  0  0  0  0
M  END
>  <Formula> (19)
C6H8O2

>  <Name> (19)
(E,E)-2,4-HEXADIENOIC ACID

>  <CAS-Nr> (19)
110-44-1

>  <EINECS> (19)
203-768-7

>  <21 CFR> (19)
133.118, 150.161, 182.3089, 150.141, 166.110, 177.2260, 133.123, 133.124, 133.169, 133.173, 133.179, 133.187, 133.188, 172.872, 181.23

>  <LD50-rat-oral> (19)
7360

>  <Compound classification> (19)
Ali-COOH

>  <Microorganism> (19)
Aspergillus niger

>  <Microorganism classification> (19)
fungi

>  <MIC> (19)
500

>  <Annotation> (19)
in beverages

>  <Method abbreviation> (19)
SDT

>  <Ref-Nr> (19)
237

>  <Marker> (19)
0

>  <Method> (19)
Serial dilution test; Inoculum size: 10E6 cfu/ml; Medium: CSB; pH: ---; Incubation-temperature: 37 degrees Centigrade; Incubation-time: 24-72h; Solubility enhancer: not given

>  <Reference> (19)
Wallhaeusser, K.H.: Praxis der Sterilisation-Desinfektion-Konservierung-Keimidentifizierung-Betriebshygiene; Georg Thieme Verlag Stuttgart-New York (1984)

>  <mol_id> (19)
203

>  <LD50-mouse-oral> (19)
3200

>  <LD50-mou-ip> (19)
2820

>  <MolWeight> (19)
112.12

>  <Nickname> (19)
Sorbic acid

$$$$

csChmFindW11180110282D

 16 15  0  0  0  0  0  0  0  0999 V2000
    6.1027    3.0562    0.0279 C   0  0  0  0  0  0  0  0  0  0  0  0
    4.5092    2.1912    0.0271 C   0  0  0  0  0  0  0  0  0  0  0  0
    7.5772    2.2467    0.0190 C   0  0  0  0  0  0  0  0  0  0  0  0
    3.0341    3.0022    0.0360 C   0  0  0  0  0  0  0  0  0  0  0  0
    9.2077    3.1183    0.0168 C   0  0  0  0  0  0  0  0  0  0  0  0
    1.4142    2.1499    0.0353 C   0  0  0  0  0  0  0  0  0  0  0  0
    0.0000    2.7838    0.0460 O   0  0  0  0  0  0  0  0  0  0  0  0
    1.4690    0.4367    0.0213 O   0  0  0  0  0  0  0  0  0  0  0  0
    6.0552    4.4386    0.0365 H   0  0  0  0  0  0  0  0  0  0  0  0
    4.5470    0.8050    0.0185 H   0  0  0  0  0  0  0  0  0  0  0  0
    7.6265    0.8648    0.0105 H   0  0  0  0  0  0  0  0  0  0  0  0
    2.9370    4.3803    0.0447 H   0  0  0  0  0  0  0  0  0  0  0  0
   10.2671    2.2031    0.0397 H   0  0  0  0  0  0  0  0  0  0  0  0
    9.3236    3.9541    1.1372 H   0  0  0  0  0  0  0  0  0  0  0  0
    9.3389    3.9139   -1.1311 H   0  0  0  0  0  0  0  0  0  0  0  0
    0.3331    0.0000    0.0221 H   0  0  0  0  0  0  0  0  0  0  0  0
  1  2  1  0  0  0  0
  1  3  2  0  0  0  0
  1  9  1  0  0  0  0
  2  4  2  0  0  0  0
  2 10  1  0  0  0  0
  3  5  1  0  0  0  0
  3 11  1  0  0  0  0
  4  6  1  0  0  0  0
  4 12  1  0  0  0  0
  5 13  1  0  0  0  0
  5 14  1  1  0  0  0
  5 15  1  6  0  0  0
  6  7  2  0  0  0  0
  6  8  1  0  0  0  0
  8 16  1  0  0  0  0
M  END
>  <Formula> (20)
C6H8O2

>  <Name> (20)
(E,E)-2,4-HEXADIENOIC ACID

>  <CAS-Nr> (20)
110-44-1

>  <EINECS> (20)
203-768-7

>  <21 CFR> (20)
133.118, 150.161, 182.3089, 150.141, 166.110, 177.2260, 133.123, 133.124, 133.169, 133.173, 133.179, 133.187, 133.188, 172.872, 181.23

>  <LD50-rat-oral> (20)
7360

>  <Compound classification> (20)
Ali-COOH

>  <Microorganism> (20)
Aspergillus niger

>  <Microorganism classification> (20)
fungi

>  <MIC> (20)
750

>  <Annotation> (20)
in tomato-pulp

>  <Method abbreviation> (20)
SDT

>  <Ref-Nr> (20)
237

>  <Marker> (20)
0

>  <Method> (20)
Serial dilution test; Inoculum size: 10E6 cfu/ml; Medium: CSB; pH: ---; Incubation-temperature: 37 degrees Centigrade; Incubation-time: 24-72h; Solubility enhancer: not given

>  <Reference> (20)
Wallhaeusser, K.H.: Praxis der Sterilisation-Desinfektion-Konservierung-Keimidentifizierung-Betriebshygiene; Georg Thieme Verlag Stuttgart-New York (1984)

>  <mol_id> (20)
203

>  <LD50-mouse-oral> (20)
3200

>  <LD50-mou-ip> (20)
2820

>  <MolWeight> (20)
112.12

>  <Nickname> (20)
Sorbic acid

$$$$

csChmFindW11180110282D

 16 15  0  0  0  0  0  0  0  0999 V2000
    6.1027    3.0562    0.0279 C   0  0  0  0  0  0  0  0  0  0  0  0
    4.5092    2.1912    0.0271 C   0  0  0  0  0  0  0  0  0  0  0  0
    7.5772    2.2467    0.0190 C   0  0  0  0  0  0  0  0  0  0  0  0
    3.0341    3.0022    0.0360 C   0  0  0  0  0  0  0  0  0  0  0  0
    9.2077    3.1183    0.0168 C   0  0  0  0  0  0  0  0  0  0  0  0
    1.4142    2.1499    0.0353 C   0  0  0  0  0  0  0  0  0  0  0  0
    0.0000    2.7838    0.0460 O   0  0  0  0  0  0  0  0  0  0  0  0
    1.4690    0.4367    0.0213 O   0  0  0  0  0  0  0  0  0  0  0  0
    6.0552    4.4386    0.0365 H   0  0  0  0  0  0  0  0  0  0  0  0
    4.5470    0.8050    0.0185 H   0  0  0  0  0  0  0  0  0  0  0  0
    7.6265    0.8648    0.0105 H   0  0  0  0  0  0  0  0  0  0  0  0
    2.9370    4.3803    0.0447 H   0  0  0  0  0  0  0  0  0  0  0  0
   10.2671    2.2031    0.0397 H   0  0  0  0  0  0  0  0  0  0  0  0
    9.3236    3.9541    1.1372 H   0  0  0  0  0  0  0  0  0  0  0  0
    9.3389    3.9139   -1.1311 H   0  0  0  0  0  0  0  0  0  0  0  0
    0.3331    0.0000    0.0221 H   0  0  0  0  0  0  0  0  0  0  0  0
  1  2  1  0  0  0  0
  1  3  2  0  0  0  0
  1  9  1  0  0  0  0
  2  4  2  0  0  0  0
  2 10  1  0  0  0  0
  3  5  1  0  0  0  0
  3 11  1  0  0  0  0
  4  6  1  0  0  0  0
  4 12  1  0  0  0  0
  5 13  1  0  0  0  0
  5 14  1  1  0  0  0
  5 15  1  6  0  0  0
  6  7  2  0  0  0  0
  6  8  1  0  0  0  0
  8 16  1  0  0  0  0
M  END
>  <Formula> (21)
C6H8O2

>  <Name> (21)
(E,E)-2,4-HEXADIENOIC ACID

>  <CAS-Nr> (21)
110-44-1

>  <EINECS> (21)
203-768-7

>  <21 CFR> (21)
133.118, 150.161, 182.3089, 150.141, 166.110, 177.2260, 133.123, 133.124, 133.169, 133.173, 133.179, 133.187, 133.188, 172.872, 181.23

>  <LD50-rat-oral> (21)
7360

>  <Compound classification> (21)
Ali-COOH

>  <Microorganism> (21)
Alternaria alternata

>  <Publication strain name> (21)
Alternaria tenuis

>  <Microorganism classification> (21)
fungi

>  <MIC> (21)
500

>  <Method abbreviation> (21)
SDT

>  <Ref-Nr> (21)
237

>  <Marker> (21)
0

>  <Method> (21)
Serial dilution test; Inoculum size: 10E6 cfu/ml; Medium: CSB; pH: ---; Incubation-temperature: 37 degrees Centigrade; Incubation-time: 24-72h; Solubility enhancer: not given

>  <Reference> (21)
Wallhaeusser, K.H.: Praxis der Sterilisation-Desinfektion-Konservierung-Keimidentifizierung-Betriebshygiene; Georg Thieme Verlag Stuttgart-New York (1984)

>  <mol_id> (21)
203

>  <LD50-mouse-oral> (21)
3200

>  <LD50-mou-ip> (21)
2820

>  <MolWeight> (21)
112.12

>  <Nickname> (21)
Sorbic acid

$$$$

csChmFindW11180110282D

 16 15  0  0  0  0  0  0  0  0999 V2000
    6.1027    3.0562    0.0279 C   0  0  0  0  0  0  0  0  0  0  0  0
    4.5092    2.1912    0.0271 C   0  0  0  0  0  0  0  0  0  0  0  0
    7.5772    2.2467    0.0190 C   0  0  0  0  0  0  0  0  0  0  0  0
    3.0341    3.0022    0.0360 C   0  0  0  0  0  0  0  0  0  0  0  0
    9.2077    3.1183    0.0168 C   0  0  0  0  0  0  0  0  0  0  0  0
    1.4142    2.1499    0.0353 C   0  0  0  0  0  0  0  0  0  0  0  0
    0.0000    2.7838    0.0460 O   0  0  0  0  0  0  0  0  0  0  0  0
    1.4690    0.4367    0.0213 O   0  0  0  0  0  0  0  0  0  0  0  0
    6.0552    4.4386    0.0365 H   0  0  0  0  0  0  0  0  0  0  0  0
    4.5470    0.8050    0.0185 H   0  0  0  0  0  0  0  0  0  0  0  0
    7.6265    0.8648    0.0105 H   0  0  0  0  0  0  0  0  0  0  0  0
    2.9370    4.3803    0.0447 H   0  0  0  0  0  0  0  0  0  0  0  0
   10.2671    2.2031    0.0397 H   0  0  0  0  0  0  0  0  0  0  0  0
    9.3236    3.9541    1.1372 H   0  0  0  0  0  0  0  0  0  0  0  0
    9.3389    3.9139   -1.1311 H   0  0  0  0  0  0  0  0  0  0  0  0
    0.3331    0.0000    0.0221 H   0  0  0  0  0  0  0  0  0  0  0  0
  1  2  1  0  0  0  0
  1  3  2  0  0  0  0
  1  9  1  0  0  0  0
  2  4  2  0  0  0  0
  2 10  1  0  0  0  0
  3  5  1  0  0  0  0
  3 11  1  0  0  0  0
  4  6  1  0  0  0  0
  4 12  1  0  0  0  0
  5 13  1  0  0  0  0
  5 14  1  1  0  0  0
  5 15  1  6  0  0  0
  6  7  2  0  0  0  0
  6  8  1  0  0  0  0
  8 16  1  0  0  0  0
M  END
>  <Formula> (22)
C6H8O2

>  <Name> (22)
(E,E)-2,4-HEXADIENOIC ACID

>  <CAS-Nr> (22)
110-44-1

>  <EINECS> (22)
203-768-7

>  <21 CFR> (22)
133.118, 150.161, 182.3089, 150.141, 166.110, 177.2260, 133.123, 133.124, 133.169, 133.173, 133.179, 133.187, 133.188, 172.872, 181.23

>  <LD50-rat-oral> (22)
7360

>  <Compound classification> (22)
Ali-COOH

>  <Microorganism> (22)
Alternaria alternata

>  <Publication strain name> (22)
Alternaria tenuis

>  <Microorganism classification> (22)
fungi

>  <MIC> (22)
2000

>  <Annotation> (22)
in cosmetic creams

>  <Method abbreviation> (22)
SDT

>  <Ref-Nr> (22)
237

>  <Marker> (22)
0

>  <Method> (22)
Serial dilution test; Inoculum size: 10E6 cfu/ml; Medium: CSB; pH: ---; Incubation-temperature: 37 degrees Centigrade; Incubation-time: 24-72h; Solubility enhancer: not given

>  <Reference> (22)
Wallhaeusser, K.H.: Praxis der Sterilisation-Desinfektion-Konservierung-Keimidentifizierung-Betriebshygiene; Georg Thieme Verlag Stuttgart-New York (1984)

>  <mol_id> (22)
203

>  <LD50-mouse-oral> (22)
3200

>  <LD50-mou-ip> (22)
2820

>  <MolWeight> (22)
112.12

>  <Nickname> (22)
Sorbic acid

$$$$

csChmFindW11180110282D

 16 15  0  0  0  0  0  0  0  0999 V2000
    6.1027    3.0562    0.0279 C   0  0  0  0  0  0  0  0  0  0  0  0
    4.5092    2.1912    0.0271 C   0  0  0  0  0  0  0  0  0  0  0  0
    7.5772    2.2467    0.0190 C   0  0  0  0  0  0  0  0  0  0  0  0
    3.0341    3.0022    0.0360 C   0  0  0  0  0  0  0  0  0  0  0  0
    9.2077    3.1183    0.0168 C   0  0  0  0  0  0  0  0  0  0  0  0
    1.4142    2.1499    0.0353 C   0  0  0  0  0  0  0  0  0  0  0  0
    0.0000    2.7838    0.0460 O   0  0  0  0  0  0  0  0  0  0  0  0
    1.4690    0.4367    0.0213 O   0  0  0  0  0  0  0  0  0  0  0  0
    6.0552    4.4386    0.0365 H   0  0  0  0  0  0  0  0  0  0  0  0
    4.5470    0.8050    0.0185 H   0  0  0  0  0  0  0  0  0  0  0  0
    7.6265    0.8648    0.0105 H   0  0  0  0  0  0  0  0  0  0  0  0
    2.9370    4.3803    0.0447 H   0  0  0  0  0  0  0  0  0  0  0  0
   10.2671    2.2031    0.0397 H   0  0  0  0  0  0  0  0  0  0  0  0
    9.3236    3.9541    1.1372 H   0  0  0  0  0  0  0  0  0  0  0  0
    9.3389    3.9139   -1.1311 H   0  0  0  0  0  0  0  0  0  0  0  0
    0.3331    0.0000    0.0221 H   0  0  0  0  0  0  0  0  0  0  0  0
  1  2  1  0  0  0  0
  1  3  2  0  0  0  0
  1  9  1  0  0  0  0
  2  4  2  0  0  0  0
  2 10  1  0  0  0  0
  3  5  1  0  0  0  0
  3 11  1  0  0  0  0
  4  6  1  0  0  0  0
  4 12  1  0  0  0  0
  5 13  1  0  0  0  0
  5 14  1  1  0  0  0
  5 15  1  6  0  0  0
  6  7  2  0  0  0  0
  6  8  1  0  0  0  0
  8 16  1  0  0  0  0
M  END
>  <Formula> (23)
C6H8O2

>  <Name> (23)
(E,E)-2,4-HEXADIENOIC ACID

>  <CAS-Nr> (23)
110-44-1

>  <EINECS> (23)
203-768-7

>  <21 CFR> (23)
133.118, 150.161, 182.3089, 150.141, 166.110, 177.2260, 133.123, 133.124, 133.169, 133.173, 133.179, 133.187, 133.188, 172.872, 181.23

>  <LD50-rat-oral> (23)
7360

>  <Compound classification> (23)
Ali-COOH

>  <Microorganism> (23)
Aspergillus flavus

>  <Microorganism classification> (23)
fungi

>  <MIC> (23)
200

>  <Method abbreviation> (23)
SDT

>  <Ref-Nr> (23)
237

>  <Marker> (23)
0

>  <Method> (23)
Serial dilution test; Inoculum size: 10E6 cfu/ml; Medium: CSB; pH: ---; Incubation-temperature: 37 degrees Centigrade; Incubation-time: 24-72h; Solubility enhancer: not given

>  <Reference> (23)
Wallhaeusser, K.H.: Praxis der Sterilisation-Desinfektion-Konservierung-Keimidentifizierung-Betriebshygiene; Georg Thieme Verlag Stuttgart-New York (1984)

>  <mol_id> (23)
203

>  <LD50-mouse-oral> (23)
3200

>  <LD50-mou-ip> (23)
2820

>  <MolWeight> (23)
112.12

>  <Nickname> (23)
Sorbic acid

$$$$

csChmFindW11180110282D

 16 15  0  0  0  0  0  0  0  0999 V2000
    6.1027    3.0562    0.0279 C   0  0  0  0  0  0  0  0  0  0  0  0
    4.5092    2.1912    0.0271 C   0  0  0  0  0  0  0  0  0  0  0  0
    7.5772    2.2467    0.0190 C   0  0  0  0  0  0  0  0  0  0  0  0
    3.0341    3.0022    0.0360 C   0  0  0  0  0  0  0  0  0  0  0  0
    9.2077    3.1183    0.0168 C   0  0  0  0  0  0  0  0  0  0  0  0
    1.4142    2.1499    0.0353 C   0  0  0  0  0  0  0  0  0  0  0  0
    0.0000    2.7838    0.0460 O   0  0  0  0  0  0  0  0  0  0  0  0
    1.4690    0.4367    0.0213 O   0  0  0  0  0  0  0  0  0  0  0  0
    6.0552    4.4386    0.0365 H   0  0  0  0  0  0  0  0  0  0  0  0
    4.5470    0.8050    0.0185 H   0  0  0  0  0  0  0  0  0  0  0  0
    7.6265    0.8648    0.0105 H   0  0  0  0  0  0  0  0  0  0  0  0
    2.9370    4.3803    0.0447 H   0  0  0  0  0  0  0  0  0  0  0  0
   10.2671    2.2031    0.0397 H   0  0  0  0  0  0  0  0  0  0  0  0
    9.3236    3.9541    1.1372 H   0  0  0  0  0  0  0  0  0  0  0  0
    9.3389    3.9139   -1.1311 H   0  0  0  0  0  0  0  0  0  0  0  0
    0.3331    0.0000    0.0221 H   0  0  0  0  0  0  0  0  0  0  0  0
  1  2  1  0  0  0  0
  1  3  2  0  0  0  0
  1  9  1  0  0  0  0
  2  4  2  0  0  0  0
  2 10  1  0  0  0  0
  3  5  1  0  0  0  0
  3 11  1  0  0  0  0
  4  6  1  0  0  0  0
  4 12  1  0  0  0  0
  5 13  1  0  0  0  0
  5 14  1  1  0  0  0
  5 15  1  6  0  0  0
  6  7  2  0  0  0  0
  6  8  1  0  0  0  0
  8 16  1  0  0  0  0
M  END
>  <Formula> (24)
C6H8O2

>  <Name> (24)
(E,E)-2,4-HEXADIENOIC ACID

>  <CAS-Nr> (24)
110-44-1

>  <EINECS> (24)
203-768-7

>  <21 CFR> (24)
133.118, 150.161, 182.3089, 150.141, 166.110, 177.2260, 133.123, 133.124, 133.169, 133.173, 133.179, 133.187, 133.188, 172.872, 181.23

>  <LD50-rat-oral> (24)
7360

>  <Compound classification> (24)
Ali-COOH

>  <Microorganism> (24)
Aspergillus flavus

>  <Microorganism classification> (24)
fungi

>  <MIC> (24)
625

>  <Annotation> (24)
in beverages

>  <Method abbreviation> (24)
SDT

>  <Ref-Nr> (24)
237

>  <Marker> (24)
0

>  <Method> (24)
Serial dilution test; Inoculum size: 10E6 cfu/ml; Medium: CSB; pH: ---; Incubation-temperature: 37 degrees Centigrade; Incubation-time: 24-72h; Solubility enhancer: not given

>  <Reference> (24)
Wallhaeusser, K.H.: Praxis der Sterilisation-Desinfektion-Konservierung-Keimidentifizierung-Betriebshygiene; Georg Thieme Verlag Stuttgart-New York (1984)

>  <mol_id> (24)
203

>  <LD50-mouse-oral> (24)
3200

>  <LD50-mou-ip> (24)
2820

>  <MolWeight> (24)
112.12

>  <Nickname> (24)
Sorbic acid

$$$$

csChmFindW11180110282D

 23 24  0  0  0  0  0  0  0  0999 V2000
    2.1964    4.1108    0.4933 C   0  0  0  0  0  0  0  0  0  0  0  0
    1.3378    2.6473    0.4933 C   0  0  0  0  0  0  0  0  0  0  0  0
    2.1828    1.1754    0.4787 C   0  0  0  0  0  0  0  0  0  0  0  0
    3.8778    1.1653    0.4703 C   0  0  0  0  0  0  0  0  0  0  0  0
    4.7507    2.6333    0.4752 C   0  0  0  0  0  0  0  0  0  0  0  0
    3.8921    4.1074    0.4817 C   0  0  0  0  0  0  0  0  0  0  0  0
    6.5283    2.6072    0.4946 C   0  0  0  0  0  0  0  0  0  0  0  0
    7.3475    1.4719    1.4703 C   0  0  0  0  0  0  0  0  0  0  0  0
    9.0402    1.4033    1.5130 C   0  0  0  0  0  0  0  0  0  0  0  0
    9.9589    2.4751    0.5717 C   0  0  0  0  0  0  0  0  0  0  0  0
    9.1851    3.6193   -0.4067 C   0  0  0  0  0  0  0  0  0  0  0  0
    7.4787    3.6907   -0.4411 C   0  0  0  0  0  0  0  0  0  0  0  0
    6.6778    4.8220   -1.3827 O   0  0  0  0  0  0  0  0  0  0  0  0
    1.5353    5.2745    0.5003 H   0  0  0  0  0  0  0  0  0  0  0  0
    0.0000    2.6531    0.5018 H   0  0  0  0  0  0  0  0  0  0  0  0
    1.5108    0.0180    0.4712 H   0  0  0  0  0  0  0  0  0  0  0  0
    4.5368    0.0000    0.4489 H   0  0  0  0  0  0  0  0  0  0  0  0
    4.5671    5.2649    0.4637 H   0  0  0  0  0  0  0  0  0  0  0  0
    6.6297    0.6247    2.2212 H   0  0  0  0  0  0  0  0  0  0  0  0
    9.6510    0.5024    2.2910 H   0  0  0  0  0  0  0  0  0  0  0  0
   11.2960    2.4204    0.6014 H   0  0  0  0  0  0  0  0  0  0  0  0
    9.9021    4.4677   -1.1520 H   0  0  0  0  0  0  0  0  0  0  0  0
    7.4817    5.3803   -2.0392 H   0  0  0  0  0  0  0  0  0  0  0  0
  1  2  2  0  0  0  0
  1  6  1  0  0  0  0
  1 14  1  0  0  0  0
  2  3  1  0  0  0  0
  2 15  1  0  0  0  0
  3  4  2  0  0  0  0
  3 16  1  0  0  0  0
  4  5  1  0  0  0  0
  4 17  1  0  0  0  0
  5  6  2  0  0  0  0
  5  7  1  0  0  0  0
  6 18  1  0  0  0  0
  7  8  2  0  0  0  0
  7 12  1  6  0  0  0
  8  9  1  0  0  0  0
  8 19  1  1  0  0  0
  9 10  2  0  0  0  0
  9 20  1  1  0  0  0
 10 11  1  6  0  0  0
 10 21  1  0  0  0  0
 11 12  2  0  0  0  0
 11 22  1  6  0  0  0
 12 13  1  6  0  0  0
 13 23  1  6  0  0  0
M  END
>  <Formula> (25)
C12H10O

>  <Name> (25)
BIPHENYL-2-OL

>  <CAS-Nr> (25)
90-43-7

>  <EINECS> (25)
201-993-5

>  <21 CFR> (25)
175.105

>  <LD50-rat-oral> (25)
2000

>  <Compound classification> (25)
Ar-OH

>  <Microorganism> (25)
Staphylococcus aureus

>  <Microorganism classification> (25)
Bac+

>  <MIC> (25)
100

>  <Method abbreviation> (25)
SDT

>  <Ref-Nr> (25)
237

>  <Marker> (25)
0

>  <Method> (25)
Serial dilution test; Inoculum size: 10E6 cfu/ml; Medium: CSB; pH: ---; Incubation-temperature: 37 degrees Centigrade; Incubation-time: 24-72h; Solubility enhancer: not given

>  <Reference> (25)
Wallhaeusser, K.H.: Praxis der Sterilisation-Desinfektion-Konservierung-Keimidentifizierung-Betriebshygiene; Georg Thieme Verlag Stuttgart-New York (1984)

>  <mol_id> (25)
1461

>  <LD50-mouse-oral> (25)
1050

>  <LD50-mou-ip> (25)
50

>  <MolWeight> (25)
170.21

>  <Nickname> (25)
ortho-Phenylphenol

>  <other Names> (25)
ortho-Xenol, 2-Biphenylol

$$$$

csChmFindW11180110282D

 16 15  0  0  0  0  0  0  0  0999 V2000
    6.1027    3.0562    0.0279 C   0  0  0  0  0  0  0  0  0  0  0  0
    4.5092    2.1912    0.0271 C   0  0  0  0  0  0  0  0  0  0  0  0
    7.5772    2.2467    0.0190 C   0  0  0  0  0  0  0  0  0  0  0  0
    3.0341    3.0022    0.0360 C   0  0  0  0  0  0  0  0  0  0  0  0
    9.2077    3.1183    0.0168 C   0  0  0  0  0  0  0  0  0  0  0  0
    1.4142    2.1499    0.0353 C   0  0  0  0  0  0  0  0  0  0  0  0
    0.0000    2.7838    0.0460 O   0  0  0  0  0  0  0  0  0  0  0  0
    1.4690    0.4367    0.0213 O   0  0  0  0  0  0  0  0  0  0  0  0
    6.0552    4.4386    0.0365 H   0  0  0  0  0  0  0  0  0  0  0  0
    4.5470    0.8050    0.0185 H   0  0  0  0  0  0  0  0  0  0  0  0
    7.6265    0.8648    0.0105 H   0  0  0  0  0  0  0  0  0  0  0  0
    2.9370    4.3803    0.0447 H   0  0  0  0  0  0  0  0  0  0  0  0
   10.2671    2.2031    0.0397 H   0  0  0  0  0  0  0  0  0  0  0  0
    9.3236    3.9541    1.1372 H   0  0  0  0  0  0  0  0  0  0  0  0
    9.3389    3.9139   -1.1311 H   0  0  0  0  0  0  0  0  0  0  0  0
    0.3331    0.0000    0.0221 H   0  0  0  0  0  0  0  0  0  0  0  0
  1  2  1  0  0  0  0
  1  3  2  0  0  0  0
  1  9  1  0  0  0  0
  2  4  2  0  0  0  0
  2 10  1  0  0  0  0
  3  5  1  0  0  0  0
  3 11  1  0  0  0  0
  4  6  1  0  0  0  0
  4 12  1  0  0  0  0
  5 13  1  0  0  0  0
  5 14  1  1  0  0  0
  5 15  1  6  0  0  0
  6  7  2  0  0  0  0
  6  8  1  0  0  0  0
  8 16  1  0  0  0  0
M  END
>  <Formula> (26)
C6H8O2

>  <Name> (26)
(E,E)-2,4-HEXADIENOIC ACID

>  <CAS-Nr> (26)
110-44-1

>  <EINECS> (26)
203-768-7

>  <21 CFR> (26)
133.118, 150.161, 182.3089, 150.141, 166.110, 177.2260, 133.123, 133.124, 133.169, 133.173, 133.179, 133.187, 133.188, 172.872, 181.23

>  <LD50-rat-oral> (26)
7360

>  <Compound classification> (26)
Ali-COOH

>  <Microorganism> (26)
Aspergillus flavus

>  <Microorganism classification> (26)
fungi

>  <MIC> (26)
1000

>  <Annotation> (26)
in tomato-pulp

>  <Method abbreviation> (26)
SDT

>  <Ref-Nr> (26)
237

>  <Marker> (26)
0

>  <Method> (26)
Serial dilution test; Inoculum size: 10E6 cfu/ml; Medium: CSB; pH: ---; Incubation-temperature: 37 degrees Centigrade; Incubation-time: 24-72h; Solubility enhancer: not given

>  <Reference> (26)
Wallhaeusser, K.H.: Praxis der Sterilisation-Desinfektion-Konservierung-Keimidentifizierung-Betriebshygiene; Georg Thieme Verlag Stuttgart-New York (1984)

>  <mol_id> (26)
203

>  <LD50-mouse-oral> (26)
3200

>  <LD50-mou-ip> (26)
2820

>  <MolWeight> (26)
112.12

>  <Nickname> (26)
Sorbic acid

$$$$

csChmFindW11180110282D

 16 15  0  0  0  0  0  0  0  0999 V2000
    6.1027    3.0562    0.0279 C   0  0  0  0  0  0  0  0  0  0  0  0
    4.5092    2.1912    0.0271 C   0  0  0  0  0  0  0  0  0  0  0  0
    7.5772    2.2467    0.0190 C   0  0  0  0  0  0  0  0  0  0  0  0
    3.0341    3.0022    0.0360 C   0  0  0  0  0  0  0  0  0  0  0  0
    9.2077    3.1183    0.0168 C   0  0  0  0  0  0  0  0  0  0  0  0
    1.4142    2.1499    0.0353 C   0  0  0  0  0  0  0  0  0  0  0  0
    0.0000    2.7838    0.0460 O   0  0  0  0  0  0  0  0  0  0  0  0
    1.4690    0.4367    0.0213 O   0  0  0  0  0  0  0  0  0  0  0  0
    6.0552    4.4386    0.0365 H   0  0  0  0  0  0  0  0  0  0  0  0
    4.5470    0.8050    0.0185 H   0  0  0  0  0  0  0  0  0  0  0  0
    7.6265    0.8648    0.0105 H   0  0  0  0  0  0  0  0  0  0  0  0
    2.9370    4.3803    0.0447 H   0  0  0  0  0  0  0  0  0  0  0  0
   10.2671    2.2031    0.0397 H   0  0  0  0  0  0  0  0  0  0  0  0
    9.3236    3.9541    1.1372 H   0  0  0  0  0  0  0  0  0  0  0  0
    9.3389    3.9139   -1.1311 H   0  0  0  0  0  0  0  0  0  0  0  0
    0.3331    0.0000    0.0221 H   0  0  0  0  0  0  0  0  0  0  0  0
  1  2  1  0  0  0  0
  1  3  2  0  0  0  0
  1  9  1  0  0  0  0
  2  4  2  0  0  0  0
  2 10  1  0  0  0  0
  3  5  1  0  0  0  0
  3 11  1  0  0  0  0
  4  6  1  0  0  0  0
  4 12  1  0  0  0  0
  5 13  1  0  0  0  0
  5 14  1  1  0  0  0
  5 15  1  6  0  0  0
  6  7  2  0  0  0  0
  6  8  1  0  0  0  0
  8 16  1  0  0  0  0
M  END
>  <Formula> (27)
C6H8O2

>  <Name> (27)
(E,E)-2,4-HEXADIENOIC ACID

>  <CAS-Nr> (27)
110-44-1

>  <EINECS> (27)
203-768-7

>  <21 CFR> (27)
133.118, 150.161, 182.3089, 150.141, 166.110, 177.2260, 133.123, 133.124, 133.169, 133.173, 133.179, 133.187, 133.188, 172.872, 181.23

>  <LD50-rat-oral> (27)
7360

>  <Compound classification> (27)
Ali-COOH

>  <Microorganism> (27)
Aspergillus flavus

>  <Microorganism classification> (27)
fungi

>  <MIC> (27)
1250

>  <Annotation> (27)
in bread

>  <Method abbreviation> (27)
SDT

>  <Ref-Nr> (27)
237

>  <Marker> (27)
0

>  <Method> (27)
Serial dilution test; Inoculum size: 10E6 cfu/ml; Medium: CSB; pH: ---; Incubation-temperature: 37 degrees Centigrade; Incubation-time: 24-72h; Solubility enhancer: not given

>  <Reference> (27)
Wallhaeusser, K.H.: Praxis der Sterilisation-Desinfektion-Konservierung-Keimidentifizierung-Betriebshygiene; Georg Thieme Verlag Stuttgart-New York (1984)

>  <mol_id> (27)
203

>  <LD50-mouse-oral> (27)
3200

>  <LD50-mou-ip> (27)
2820

>  <MolWeight> (27)
112.12

>  <Nickname> (27)
Sorbic acid

$$$$

csChmFindW11180110282D

 16 15  0  0  0  0  0  0  0  0999 V2000
    6.1027    3.0562    0.0279 C   0  0  0  0  0  0  0  0  0  0  0  0
    4.5092    2.1912    0.0271 C   0  0  0  0  0  0  0  0  0  0  0  0
    7.5772    2.2467    0.0190 C   0  0  0  0  0  0  0  0  0  0  0  0
    3.0341    3.0022    0.0360 C   0  0  0  0  0  0  0  0  0  0  0  0
    9.2077    3.1183    0.0168 C   0  0  0  0  0  0  0  0  0  0  0  0
    1.4142    2.1499    0.0353 C   0  0  0  0  0  0  0  0  0  0  0  0
    0.0000    2.7838    0.0460 O   0  0  0  0  0  0  0  0  0  0  0  0
    1.4690    0.4367    0.0213 O   0  0  0  0  0  0  0  0  0  0  0  0
    6.0552    4.4386    0.0365 H   0  0  0  0  0  0  0  0  0  0  0  0
    4.5470    0.8050    0.0185 H   0  0  0  0  0  0  0  0  0  0  0  0
    7.6265    0.8648    0.0105 H   0  0  0  0  0  0  0  0  0  0  0  0
    2.9370    4.3803    0.0447 H   0  0  0  0  0  0  0  0  0  0  0  0
   10.2671    2.2031    0.0397 H   0  0  0  0  0  0  0  0  0  0  0  0
    9.3236    3.9541    1.1372 H   0  0  0  0  0  0  0  0  0  0  0  0
    9.3389    3.9139   -1.1311 H   0  0  0  0  0  0  0  0  0  0  0  0
    0.3331    0.0000    0.0221 H   0  0  0  0  0  0  0  0  0  0  0  0
  1  2  1  0  0  0  0
  1  3  2  0  0  0  0
  1  9  1  0  0  0  0
  2  4  2  0  0  0  0
  2 10  1  0  0  0  0
  3  5  1  0  0  0  0
  3 11  1  0  0  0  0
  4  6  1  0  0  0  0
  4 12  1  0  0  0  0
  5 13  1  0  0  0  0
  5 14  1  1  0  0  0
  5 15  1  6  0  0  0
  6  7  2  0  0  0  0
  6  8  1  0  0  0  0
  8 16  1  0  0  0  0
M  END
>  <Formula> (28)
C6H8O2

>  <Name> (28)
(E,E)-2,4-HEXADIENOIC ACID

>  <CAS-Nr> (28)
110-44-1

>  <EINECS> (28)
203-768-7

>  <21 CFR> (28)
133.118, 150.161, 182.3089, 150.141, 166.110, 177.2260, 133.123, 133.124, 133.169, 133.173, 133.179, 133.187, 133.188, 172.872, 181.23

>  <LD50-rat-oral> (28)
7360

>  <Compound classification> (28)
Ali-COOH

>  <Microorganism> (28)
Aspergillus flavus

>  <Microorganism classification> (28)
fungi

>  <MIC> (28)
2000

>  <Annotation> (28)
in cosmetic creams

>  <Method abbreviation> (28)
SDT

>  <Ref-Nr> (28)
237

>  <Marker> (28)
0

>  <Method> (28)
Serial dilution test; Inoculum size: 10E6 cfu/ml; Medium: CSB; pH: ---; Incubation-temperature: 37 degrees Centigrade; Incubation-time: 24-72h; Solubility enhancer: not given

>  <Reference> (28)
Wallhaeusser, K.H.: Praxis der Sterilisation-Desinfektion-Konservierung-Keimidentifizierung-Betriebshygiene; Georg Thieme Verlag Stuttgart-New York (1984)

>  <mol_id> (28)
203

>  <LD50-mouse-oral> (28)
3200

>  <LD50-mou-ip> (28)
2820

>  <MolWeight> (28)
112.12

>  <Nickname> (28)
Sorbic acid

$$$$

csChmFindW11180110282D

 16 15  0  0  0  0  0  0  0  0999 V2000
    6.1027    3.0562    0.0279 C   0  0  0  0  0  0  0  0  0  0  0  0
    4.5092    2.1912    0.0271 C   0  0  0  0  0  0  0  0  0  0  0  0
    7.5772    2.2467    0.0190 C   0  0  0  0  0  0  0  0  0  0  0  0
    3.0341    3.0022    0.0360 C   0  0  0  0  0  0  0  0  0  0  0  0
    9.2077    3.1183    0.0168 C   0  0  0  0  0  0  0  0  0  0  0  0
    1.4142    2.1499    0.0353 C   0  0  0  0  0  0  0  0  0  0  0  0
    0.0000    2.7838    0.0460 O   0  0  0  0  0  0  0  0  0  0  0  0
    1.4690    0.4367    0.0213 O   0  0  0  0  0  0  0  0  0  0  0  0
    6.0552    4.4386    0.0365 H   0  0  0  0  0  0  0  0  0  0  0  0
    4.5470    0.8050    0.0185 H   0  0  0  0  0  0  0  0  0  0  0  0
    7.6265    0.8648    0.0105 H   0  0  0  0  0  0  0  0  0  0  0  0
    2.9370    4.3803    0.0447 H   0  0  0  0  0  0  0  0  0  0  0  0
   10.2671    2.2031    0.0397 H   0  0  0  0  0  0  0  0  0  0  0  0
    9.3236    3.9541    1.1372 H   0  0  0  0  0  0  0  0  0  0  0  0
    9.3389    3.9139   -1.1311 H   0  0  0  0  0  0  0  0  0  0  0  0
    0.3331    0.0000    0.0221 H   0  0  0  0  0  0  0  0  0  0  0  0
  1  2  1  0  0  0  0
  1  3  2  0  0  0  0
  1  9  1  0  0  0  0
  2  4  2  0  0  0  0
  2 10  1  0  0  0  0
  3  5  1  0  0  0  0
  3 11  1  0  0  0  0
  4  6  1  0  0  0  0
  4 12  1  0  0  0  0
  5 13  1  0  0  0  0
  5 14  1  1  0  0  0
  5 15  1  6  0  0  0
  6  7  2  0  0  0  0
  6  8  1  0  0  0  0
  8 16  1  0  0  0  0
M  END
>  <Formula> (29)
C6H8O2

>  <Name> (29)
(E,E)-2,4-HEXADIENOIC ACID

>  <CAS-Nr> (29)
110-44-1

>  <EINECS> (29)
203-768-7

>  <21 CFR> (29)
133.118, 150.161, 182.3089, 150.141, 166.110, 177.2260, 133.123, 133.124, 133.169, 133.173, 133.179, 133.187, 133.188, 172.872, 181.23

>  <LD50-rat-oral> (29)
7360

>  <Compound classification> (29)
Ali-COOH

>  <Microorganism> (29)
Aspergillus niger

>  <Microorganism classification> (29)
fungi

>  <MIC> (29)
1200

>  <Method abbreviation> (29)
SDT

>  <Ref-Nr> (29)
237

>  <Marker> (29)
0

>  <Method> (29)
Serial dilution test; Inoculum size: 10E6 cfu/ml; Medium: CSB; pH: ---; Incubation-temperature: 37 degrees Centigrade; Incubation-time: 24-72h; Solubility enhancer: not given

>  <Reference> (29)
Wallhaeusser, K.H.: Praxis der Sterilisation-Desinfektion-Konservierung-Keimidentifizierung-Betriebshygiene; Georg Thieme Verlag Stuttgart-New York (1984)

>  <mol_id> (29)
203

>  <LD50-mouse-oral> (29)
3200

>  <LD50-mou-ip> (29)
2820

>  <MolWeight> (29)
112.12

>  <Nickname> (29)
Sorbic acid

$$$$

csChmFindW11180110282D

 16 15  0  0  0  0  0  0  0  0999 V2000
    6.1027    3.0562    0.0279 C   0  0  0  0  0  0  0  0  0  0  0  0
    4.5092    2.1912    0.0271 C   0  0  0  0  0  0  0  0  0  0  0  0
    7.5772    2.2467    0.0190 C   0  0  0  0  0  0  0  0  0  0  0  0
    3.0341    3.0022    0.0360 C   0  0  0  0  0  0  0  0  0  0  0  0
    9.2077    3.1183    0.0168 C   0  0  0  0  0  0  0  0  0  0  0  0
    1.4142    2.1499    0.0353 C   0  0  0  0  0  0  0  0  0  0  0  0
    0.0000    2.7838    0.0460 O   0  0  0  0  0  0  0  0  0  0  0  0
    1.4690    0.4367    0.0213 O   0  0  0  0  0  0  0  0  0  0  0  0
    6.0552    4.4386    0.0365 H   0  0  0  0  0  0  0  0  0  0  0  0
    4.5470    0.8050    0.0185 H   0  0  0  0  0  0  0  0  0  0  0  0
    7.6265    0.8648    0.0105 H   0  0  0  0  0  0  0  0  0  0  0  0
    2.9370    4.3803    0.0447 H   0  0  0  0  0  0  0  0  0  0  0  0
   10.2671    2.2031    0.0397 H   0  0  0  0  0  0  0  0  0  0  0  0
    9.3236    3.9541    1.1372 H   0  0  0  0  0  0  0  0  0  0  0  0
    9.3389    3.9139   -1.1311 H   0  0  0  0  0  0  0  0  0  0  0  0
    0.3331    0.0000    0.0221 H   0  0  0  0  0  0  0  0  0  0  0  0
  1  2  1  0  0  0  0
  1  3  2  0  0  0  0
  1  9  1  0  0  0  0
  2  4  2  0  0  0  0
  2 10  1  0  0  0  0
  3  5  1  0  0  0  0
  3 11  1  0  0  0  0
  4  6  1  0  0  0  0
  4 12  1  0  0  0  0
  5 13  1  0  0  0  0
  5 14  1  1  0  0  0
  5 15  1  6  0  0  0
  6  7  2  0  0  0  0
  6  8  1  0  0  0  0
  8 16  1  0  0  0  0
M  END
>  <Formula> (30)
C6H8O2

>  <Name> (30)
(E,E)-2,4-HEXADIENOIC ACID

>  <CAS-Nr> (30)
110-44-1

>  <EINECS> (30)
203-768-7

>  <21 CFR> (30)
133.118, 150.161, 182.3089, 150.141, 166.110, 177.2260, 133.123, 133.124, 133.169, 133.173, 133.179, 133.187, 133.188, 172.872, 181.23

>  <LD50-rat-oral> (30)
7360

>  <Compound classification> (30)
Ali-COOH

>  <Microorganism> (30)
Aspergillus niger

>  <Microorganism classification> (30)
fungi

>  <MIC> (30)
1200

>  <Annotation> (30)
MIC: range 400-2000 ppm

>  <Method abbreviation> (30)
SDT

>  <Ref-Nr> (30)
237

>  <Marker> (30)
0

>  <Method> (30)
Serial dilution test; Inoculum size: 10E6 cfu/ml; Medium: CSB; pH: ---; Incubation-temperature: 37 degrees Centigrade; Incubation-time: 24-72h; Solubility enhancer: not given

>  <Reference> (30)
Wallhaeusser, K.H.: Praxis der Sterilisation-Desinfektion-Konservierung-Keimidentifizierung-Betriebshygiene; Georg Thieme Verlag Stuttgart-New York (1984)

>  <mol_id> (30)
203

>  <LD50-mouse-oral> (30)
3200

>  <LD50-mou-ip> (30)
2820

>  <MolWeight> (30)
112.12

>  <Nickname> (30)
Sorbic acid

$$$$

csChmFindW11180110282D

 16 15  0  0  0  0  0  0  0  0999 V2000
    6.1027    3.0562    0.0279 C   0  0  0  0  0  0  0  0  0  0  0  0
    4.5092    2.1912    0.0271 C   0  0  0  0  0  0  0  0  0  0  0  0
    7.5772    2.2467    0.0190 C   0  0  0  0  0  0  0  0  0  0  0  0
    3.0341    3.0022    0.0360 C   0  0  0  0  0  0  0  0  0  0  0  0
    9.2077    3.1183    0.0168 C   0  0  0  0  0  0  0  0  0  0  0  0
    1.4142    2.1499    0.0353 C   0  0  0  0  0  0  0  0  0  0  0  0
    0.0000    2.7838    0.0460 O   0  0  0  0  0  0  0  0  0  0  0  0
    1.4690    0.4367    0.0213 O   0  0  0  0  0  0  0  0  0  0  0  0
    6.0552    4.4386    0.0365 H   0  0  0  0  0  0  0  0  0  0  0  0
    4.5470    0.8050    0.0185 H   0  0  0  0  0  0  0  0  0  0  0  0
    7.6265    0.8648    0.0105 H   0  0  0  0  0  0  0  0  0  0  0  0
    2.9370    4.3803    0.0447 H   0  0  0  0  0  0  0  0  0  0  0  0
   10.2671    2.2031    0.0397 H   0  0  0  0  0  0  0  0  0  0  0  0
    9.3236    3.9541    1.1372 H   0  0  0  0  0  0  0  0  0  0  0  0
    9.3389    3.9139   -1.1311 H   0  0  0  0  0  0  0  0  0  0  0  0
    0.3331    0.0000    0.0221 H   0  0  0  0  0  0  0  0  0  0  0  0
  1  2  1  0  0  0  0
  1  3  2  0  0  0  0
  1  9  1  0  0  0  0
  2  4  2  0  0  0  0
  2 10  1  0  0  0  0
  3  5  1  0  0  0  0
  3 11  1  0  0  0  0
  4  6  1  0  0  0  0
  4 12  1  0  0  0  0
  5 13  1  0  0  0  0
  5 14  1  1  0  0  0
  5 15  1  6  0  0  0
  6  7  2  0  0  0  0
  6  8  1  0  0  0  0
  8 16  1  0  0  0  0
M  END
>  <Formula> (31)
C6H8O2

>  <Name> (31)
(E,E)-2,4-HEXADIENOIC ACID

>  <CAS-Nr> (31)
110-44-1

>  <EINECS> (31)
203-768-7

>  <21 CFR> (31)
133.118, 150.161, 182.3089, 150.141, 166.110, 177.2260, 133.123, 133.124, 133.169, 133.173, 133.179, 133.187, 133.188, 172.872, 181.23

>  <LD50-rat-oral> (31)
7360

>  <Compound classification> (31)
Ali-COOH

>  <Microorganism> (31)
Aspergillus niger

>  <Microorganism classification> (31)
fungi

>  <MIC> (31)
2000

>  <Annotation> (31)
in cosmetic creams

>  <Method abbreviation> (31)
SDT

>  <Ref-Nr> (31)
237

>  <Marker> (31)
0

>  <Method> (31)
Serial dilution test; Inoculum size: 10E6 cfu/ml; Medium: CSB; pH: ---; Incubation-temperature: 37 degrees Centigrade; Incubation-time: 24-72h; Solubility enhancer: not given

>  <Reference> (31)
Wallhaeusser, K.H.: Praxis der Sterilisation-Desinfektion-Konservierung-Keimidentifizierung-Betriebshygiene; Georg Thieme Verlag Stuttgart-New York (1984)

>  <mol_id> (31)
203

>  <LD50-mouse-oral> (31)
3200

>  <LD50-mou-ip> (31)
2820

>  <MolWeight> (31)
112.12

>  <Nickname> (31)
Sorbic acid

$$$$

csChmFindW11180110282D

 28 28  0  0  0  0  0  0  0  0999 V2000
    2.7204    1.0763   -0.0075 C   0  0  0  0  0  0  0  0  0  0  0  0
    4.2938    1.0775   -0.0063 C   0  0  0  0  0  0  0  0  0  0  0  0
    1.9450    2.4693   -0.0074 C   0  0  0  0  0  0  0  0  0  0  0  0
    5.0977    2.4510   -0.0052 C   0  0  0  0  0  0  0  0  0  0  0  0
    2.7390    3.8479   -0.0061 C   0  0  0  0  0  0  0  0  0  0  0  0
    0.3914    2.3963   -0.0084 O   0  0  0  0  0  0  0  0  0  0  0  0
    4.3152    3.8310   -0.0051 C   0  0  0  0  0  0  0  0  0  0  0  0
    6.7594    2.3945   -0.0041 C   0  0  0  0  0  0  0  0  0  0  0  0
    7.4467    3.7873   -0.0032 O   0  0  0  0  0  0  0  0  0  0  0  0
    7.5804    1.2605   -0.0038 O   0  0  0  0  0  0  0  0  0  0  0  0
    9.0774    3.7844   -0.0019 C   0  0  0  0  0  0  0  0  0  0  0  0
    9.5534    5.4362   -0.0013 C   0  0  0  0  0  0  0  0  0  0  0  0
   11.2641    5.5585    0.0005 C   0  0  0  0  0  0  0  0  0  0  0  0
   11.7684    7.1899    0.0008 C   0  0  0  0  0  0  0  0  0  0  0  0
    2.0748    0.0112   -0.0084 H   0  0  0  0  0  0  0  0  0  0  0  0
    4.9277    0.0000   -0.0065 H   0  0  0  0  0  0  0  0  0  0  0  0
    2.1207    4.9288   -0.0060 H   0  0  0  0  0  0  0  0  0  0  0  0
    0.0000    3.4222   -0.0083 H   0  0  0  0  0  0  0  0  0  0  0  0
    4.9560    4.9034   -0.0042 H   0  0  0  0  0  0  0  0  0  0  0  0
    9.4871    3.1729   -1.0371 H   0  0  0  0  0  0  0  0  0  0  0  0
    9.4857    3.1723    1.0335 H   0  0  0  0  0  0  0  0  0  0  0  0
    9.0717    6.0169    1.0208 H   0  0  0  0  0  0  0  0  0  0  0  0
    9.0739    6.0166   -1.0246 H   0  0  0  0  0  0  0  0  0  0  0  0
   11.7338    4.9662   -1.0223 H   0  0  0  0  0  0  0  0  0  0  0  0
   11.7319    4.9659    1.0240 H   0  0  0  0  0  0  0  0  0  0  0  0
   13.0319    7.2589    0.0025 H   0  0  0  0  0  0  0  0  0  0  0  0
   11.3337    7.7924    1.0256 H   0  0  0  0  0  0  0  0  0  0  0  0
   11.3365    7.7917   -1.0256 H   0  0  0  0  0  0  0  0  0  0  0  0
  1  2  2  0  0  0  0
  1  3  1  0  0  0  0
  1 15  1  0  0  0  0
  2  4  1  0  0  0  0
  2 16  1  0  0  0  0
  3  5  2  0  0  0  0
  3  6  1  0  0  0  0
  4  7  2  0  0  0  0
  4  8  1  0  0  0  0
  5  7  1  0  0  0  0
  5 17  1  0  0  0  0
  6 18  1  0  0  0  0
  7 19  1  0  0  0  0
  8  9  1  0  0  0  0
  8 10  2  0  0  0  0
  9 11  1  0  0  0  0
 11 12  1  0  0  0  0
 11 20  1  6  0  0  0
 11 21  1  1  0  0  0
 12 13  1  0  0  0  0
 12 22  1  1  0  0  0
 12 23  1  6  0  0  0
 13 14  1  0  0  0  0
 13 24  1  6  0  0  0
 13 25  1  1  0  0  0
 14 26  1  0  0  0  0
 14 27  1  1  0  0  0
 14 28  1  6  0  0  0
M  END
>  <Formula> (32)
C11H14O3

>  <Name> (32)
4-HYDROXY-BENZOIC ACID, BUTYL ESTER

>  <CAS-Nr> (32)
94-26-8

>  <EINECS> (32)
202-318-7

>  <21 CFR> (32)
172.515

>  <Compound classification> (32)
Ar-COOR

>  <Microorganism> (32)
Penicillium chrysogenum

>  <Microorganism classification> (32)
fungi

>  <MIC> (32)
100

>  <Method abbreviation> (32)
SDT

>  <Ref-Nr> (32)
237

>  <Marker> (32)
0

>  <Method> (32)
Serial dilution test; Inoculum size: 10E6 cfu/ml; Medium: CSB; pH: ---; Incubation-temperature: 37 degrees Centigrade; Incubation-time: 24-72h; Solubility enhancer: not given

>  <Reference> (32)
Wallhaeusser, K.H.: Praxis der Sterilisation-Desinfektion-Konservierung-Keimidentifizierung-Betriebshygiene; Georg Thieme Verlag Stuttgart-New York (1984)

>  <mol_id> (32)
997

>  <LD50-mouse-oral> (32)
13200

>  <LD50-mou-ip> (32)
230

>  <MolWeight> (32)
194.22

>  <Nickname> (32)
Butylparaben

>  <other Names> (32)
Butyl p-hydroxybenzoate

$$$$

csChmFindW11180110282D

 31 31  0  0  0  0  0  0  0  0999 V2000
    3.0800    4.0917   -0.1470 C   0  0  0  0  0  0  0  0  0  0  0  0
    4.6269    5.2006   -0.8321 C   0  0  0  0  0  0  0  0  0  0  0  0
    1.3516    5.1500   -0.3299 C   0  0  0  0  0  0  0  0  0  0  0  0
    4.5943    7.0219    0.0473 C   0  0  0  0  0  0  0  0  0  0  0  0
    1.3366    6.6984    0.7163 C   0  0  0  0  0  0  0  0  0  0  0  0
    2.7903    7.9619    0.0013 C   0  0  0  0  0  0  0  0  0  0  0  0
    2.9430    2.3741   -1.2292 C   0  0  0  0  0  0  0  0  0  0  0  0
    6.2336    4.3355   -0.3088 O   0  0  0  0  0  0  0  0  0  0  0  0
    1.3870    1.2586   -0.5401 C   0  0  0  0  0  0  0  0  0  0  0  0
    4.6714    1.3158   -1.0464 C   0  0  0  0  0  0  0  0  0  0  0  0
    2.8659    9.6342    1.1580 C   0  0  0  0  0  0  0  0  0  0  0  0
    3.3066    3.7601    1.2848 H   0  0  0  0  0  0  0  0  0  0  0  0
    4.5047    5.3611   -2.3025 H   0  0  0  0  0  0  0  0  0  0  0  0
    0.1797    4.2893    0.0265 H   0  0  0  0  0  0  0  0  0  0  0  0
    1.2022    5.5281   -1.7757 H   0  0  0  0  0  0  0  0  0  0  0  0
    5.6207    7.8977   -0.6065 H   0  0  0  0  0  0  0  0  0  0  0  0
    5.0037    6.8431    1.4789 H   0  0  0  0  0  0  0  0  0  0  0  0
    1.6584    6.3402    2.1368 H   0  0  0  0  0  0  0  0  0  0  0  0
    0.0000    7.3644    0.5982 H   0  0  0  0  0  0  0  0  0  0  0  0
    2.4679    8.3431   -1.3993 H   0  0  0  0  0  0  0  0  0  0  0  0
    2.7147    2.7091   -2.6602 H   0  0  0  0  0  0  0  0  0  0  0  0
    7.1843    5.0371   -0.7417 H   0  0  0  0  0  0  0  0  0  0  0  0
    1.2769    0.0000   -1.3241 H   0  0  0  0  0  0  0  0  0  0  0  0
    0.1174    2.0222   -0.6691 H   0  0  0  0  0  0  0  0  0  0  0  0
    1.5993    0.9200    0.8922 H   0  0  0  0  0  0  0  0  0  0  0  0
    4.5831    0.0575   -1.8338 H   0  0  0  0  0  0  0  0  0  0  0  0
    4.9118    0.9775    0.3816 H   0  0  0  0  0  0  0  0  0  0  0  0
    5.8164    2.1213   -1.5477 H   0  0  0  0  0  0  0  0  0  0  0  0
    1.5523   10.3302    1.1321 H   0  0  0  0  0  0  0  0  0  0  0  0
    3.9134   10.5582    0.6480 H   0  0  0  0  0  0  0  0  0  0  0  0
    3.1919    9.2673    2.5616 H   0  0  0  0  0  0  0  0  0  0  0  0
  1  2  1  0  0  0  0
  1  3  1  0  0  0  0
  1  7  1  6  0  0  0
  1 12  1  1  0  0  0
  2  4  1  0  0  0  0
  2  8  1  0  0  0  0
  2 13  1  6  0  0  0
  3  5  1  1  0  0  0
  3 14  1  0  0  0  0
  3 15  1  6  0  0  0
  4  6  1  0  0  0  0
  4 16  1  0  0  0  0
  4 17  1  1  0  0  0
  5  6  1  0  0  0  0
  5 18  1  1  0  0  0
  5 19  1  0  0  0  0
  6 11  1  1  0  0  0
  6 20  1  6  0  0  0
  7  9  1  0  0  0  0
  7 10  1  0  0  0  0
  7 21  1  6  0  0  0
  8 22  1  0  0  0  0
  9 23  1  6  0  0  0
  9 24  1  0  0  0  0
  9 25  1  1  0  0  0
 10 26  1  6  0  0  0
 10 27  1  1  0  0  0
 10 28  1  0  0  0  0
 11 29  1  0  0  0  0
 11 30  1  0  0  0  0
 11 31  1  1  0  0  0
M  END
>  <Formula> (33)
C10H20O

>  <Name> (33)
(1R-1ALPHA,2BETA,5ALPHA)-5-METHYL-2-(1-METHYLETHYL)-CYCLOHEXANOL

>  <CAS-Nr> (33)
2216-51-5

>  <EINECS> (33)
218-690-9

>  <21 CFR> (33)
172.515, 182.20 (Menthol)

>  <LD50-rat-oral> (33)
3300

>  <Compound classification> (33)
Monoterpene

>  <Microorganism> (33)
Candida albicans

>  <Publication strain name> (33)
Oidium albicans

>  <Microorganism classification> (33)
yeast

>  <VPT evaluation> (33)
4

>  <Method abbreviation> (33)
VPT

>  <Ref-Nr> (33)
313

>  <Marker> (33)
0

>  <Method> (33)
Vapor phase test; 4 drops of the test compound were given on paper disk fixed in the top of a petri-plate. The petri-plates contained dextrose agar on which simultaneously several microbial strains were cultivated. Exposure time to vapors: 24h Incubation-temperature: 37 degrees Centigrade

>  <Reference> (33)
Kellner, W., Kober, W.: Moeglichkeiten der Verwendung aetherischer Oele zur Raumdesinfektion. 1.Mitteilung: Die Wirkung gebraeuchlicher aetherischer Oele auf Testkeime; Arzneimittel-Forschung 4, 319-25 (1954)

>  <mol_id> (33)
710

>  <LD50-mouse-oral> (33)
3400

>  <LD50-mou-ip> (33)
6600

>  <MolWeight> (33)
156.26

>  <Nickname> (33)
l-Menthol

>  <other Names> (33)
(-)-Menthol, U.S.P. Menthol, Levomenthol

$$$$

csChmFindW11180110282D

 14 14  0  0  0  0  0  0  0  0999 V2000
    4.2729    0.9591    0.0005 C   0  0  0  0  0  0  0  0  0  0  0  0
    2.8729    0.9629    0.0006 C   0  0  0  0  0  0  0  0  0  0  0  0
    4.9789    2.1717    0.0000 C   0  0  0  0  0  0  0  0  0  0  0  0
    2.1710    2.1833    0.0002 C   0  0  0  0  0  0  0  0  0  0  0  0
    4.2845    3.3897   -0.0004 C   0  0  0  0  0  0  0  0  0  0  0  0
    2.8836    3.3971   -0.0005 C   0  0  0  0  0  0  0  0  0  0  0  0
    0.6921    2.1791    0.0000 C   0  0  0  0  0  0  0  0  0  0  0  0
    0.0000    3.2071   -0.0003 O   0  0  0  0  0  0  0  0  0  0  0  0
    4.8224    0.0000    0.0009 H   0  0  0  0  0  0  0  0  0  0  0  0
    2.3178    0.0057    0.0011 H   0  0  0  0  0  0  0  0  0  0  0  0
    6.0848    2.1663    0.0000 H   0  0  0  0  0  0  0  0  0  0  0  0
    4.8421    4.3443   -0.0009 H   0  0  0  0  0  0  0  0  0  0  0  0
    2.3223    4.3522   -0.0008 H   0  0  0  0  0  0  0  0  0  0  0  0
    0.2224    1.1623    0.0005 H   0  0  0  0  0  0  0  0  0  0  0  0
  1  2  2  0  0  0  0
  1  3  1  0  0  0  0
  1  9  1  0  0  0  0
  2  4  1  0  0  0  0
  2 10  1  0  0  0  0
  3  5  2  0  0  0  0
  3 11  1  0  0  0  0
  4  6  2  0  0  0  0
  4  7  1  0  0  0  0
  5  6  1  0  0  0  0
  5 12  1  0  0  0  0
  6 13  1  0  0  0  0
  7  8  2  0  0  0  0
  7 14  1  0  0  0  0
M  END
>  <Formula> (34)
C7H6O

>  <Name> (34)
BENZALDEHYDE

>  <CAS-Nr> (34)
100-52-7

>  <EINECS> (34)
202-860-4

>  <21 CFR> (34)
182.60, 582.60

>  <LD50-rat-oral> (34)
1300

>  <Compound classification> (34)
Ar-CHO

>  <Microorganism> (34)
Candida albicans

>  <Publication strain name> (34)
Oidium albicans

>  <Microorganism classification> (34)
yeast

>  <VPT evaluation> (34)
4

>  <Method abbreviation> (34)
VPT

>  <Ref-Nr> (34)
331

>  <Marker> (34)
0

>  <Method> (34)
Vapor phase test; 4 drops of the test compound were given on paper disk fixed in the top of a petri-plate. The petri-plates contained dextrose agar on which simultaneously several microbial strains were cultivated. Exposure time to vapors: 24h Incubation-temperature: 37 degrees Centigrade

>  <Reference> (34)
Kellner, W., Kober, W.: Moeglichkeiten der Verwendung aetherischer Oele zur Raumdesinfektion. 2.Mitteilung; Arzneimittel-Forschung 5, 225-9 (1955)

>  <mol_id> (34)
155

>  <LD50-mouse-oral> (34)
28

>  <LD50-mou-ip> (34)
9

>  <MolWeight> (34)
106.12

>  <Nickname> (34)
Benzoic aldehyde

>  <other Names> (34)
artificial essential oil of almond

$$$$

csChmFindW11180110282D

 18 18  0  0  0  0  0  0  0  0999 V2000
    5.5201    1.0288    0.0024 C   0  0  0  0  0  0  0  0  0  0  0  0
    7.0065    1.0603   -0.1327 C   0  0  0  0  0  0  0  0  0  0  0  0
    4.7184    2.2938   -0.1108 C   0  0  0  0  0  0  0  0  0  0  0  0
    7.7115    2.3521   -0.3856 C   0  0  0  0  0  0  0  0  0  0  0  0
    5.4396    3.5906   -0.3680 C   0  0  0  0  0  0  0  0  0  0  0  0
    3.1689    2.3132    0.0264 C   0  0  0  0  0  0  0  0  0  0  0  0
    6.9238    3.6170   -0.5038 C   0  0  0  0  0  0  0  0  0  0  0  0
    2.3423    1.1833    0.3517 C   0  0  0  0  0  0  0  0  0  0  0  0
    0.7792    1.3062    0.4671 C   0  0  0  0  0  0  0  0  0  0  0  0
    0.0000    0.2794    0.7569 O   0  0  0  0  0  0  0  0  0  0  0  0
    4.9787    0.0000    0.1979 H   0  0  0  0  0  0  0  0  0  0  0  0
    7.6236    0.0606   -0.0398 H   0  0  0  0  0  0  0  0  0  0  0  0
    8.8846    2.3752   -0.4925 H   0  0  0  0  0  0  0  0  0  0  0  0
    4.8243    4.5916   -0.4624 H   0  0  0  0  0  0  0  0  0  0  0  0
    2.6684    3.3727   -0.1583 H   0  0  0  0  0  0  0  0  0  0  0  0
    7.4771    4.6378   -0.7050 H   0  0  0  0  0  0  0  0  0  0  0  0
    2.7813    0.1058    0.5513 H   0  0  0  0  0  0  0  0  0  0  0  0
    0.3244    2.3932    0.2762 H   0  0  0  0  0  0  0  0  0  0  0  0
  1  2  2  0  0  0  0
  1  3  1  0  0  0  0
  1 11  1  0  0  0  0
  2  4  1  0  0  0  0
  2 12  1  0  0  0  0
  3  5  2  0  0  0  0
  3  6  1  0  0  0  0
  4  7  2  0  0  0  0
  4 13  1  0  0  0  0
  5  7  1  0  0  0  0
  5 14  1  0  0  0  0
  6  8  2  0  0  0  0
  6 15  1  0  0  0  0
  7 16  1  0  0  0  0
  8  9  1  0  0  0  0
  8 17  1  0  0  0  0
  9 10  2  0  0  0  0
  9 18  1  0  0  0  0
M  END
>  <Formula> (35)
C9H8O

>  <Name> (35)
3-PHENYL-2-PROPENAL

>  <CAS-Nr> (35)
104-55-2

>  <EINECS> (35)
203-213-9

>  <21 CFR> (35)
182.60, 582.60

>  <LD50-rat-oral> (35)
2220

>  <Compound classification> (35)
Phenylpropane

>  <Microorganism> (35)
Bacillus megaterium

>  <Microorganism classification> (35)
Bac+

>  <VPT evaluation> (35)
4

>  <Method abbreviation> (35)
VPT

>  <Ref-Nr> (35)
331

>  <Marker> (35)
0

>  <Method> (35)
Vapor phase test; 4 drops of the test compound were given on paper disk fixed in the top of a petri-plate. The petri-plates contained dextrose agar on which simultaneously several microbial strains were cultivated. Exposure time to vapors: 24h Incubation-temperature: 37 degrees Centigrade

>  <Reference> (35)
Kellner, W., Kober, W.: Moeglichkeiten der Verwendung aetherischer Oele zur Raumdesinfektion. 2.Mitteilung; Arzneimittel-Forschung 5, 225-9 (1955)

>  <mol_id> (35)
556

>  <LD50-mouse-oral> (35)
2225

>  <LD50-mou-ip> (35)
610

>  <MolWeight> (35)
132.16

>  <Nickname> (35)
Cinnamic aldehyde

>  <LD50-mou-iv> (35)
75

$$$$

csChmFindW11180110282D

 24 24  0  0  0  0  0  0  0  0999 V2000
    7.9403    5.4393    1.2459 C   0  0  0  0  0  0  0  0  0  0  0  0
    7.0715    3.9032    1.1169 C   0  0  0  0  0  0  0  0  0  0  0  0
    7.0436    6.9418    1.2706 C   0  0  0  0  0  0  0  0  0  0  0  0
    9.6533    5.5396    1.3495 O   0  0  0  0  0  0  0  0  0  0  0  0
    5.3313    3.8844    1.0176 C   0  0  0  0  0  0  0  0  0  0  0  0
    8.0859    2.4972    1.0977 O   0  0  0  0  0  0  0  0  0  0  0  0
    5.3043    6.9088    1.1697 C   0  0  0  0  0  0  0  0  0  0  0  0
    4.4421    5.3943    1.0446 C   0  0  0  0  0  0  0  0  0  0  0  0
    7.2456    0.9312    1.0245 C   0  0  0  0  0  0  0  0  0  0  0  0
    2.5800    5.3709    0.9558 C   0  0  0  0  0  0  0  0  0  0  0  0
    1.9625    4.8221   -0.7096 C   0  0  0  0  0  0  0  0  0  0  0  0
    0.6867    5.5375   -1.5034 C   0  0  0  0  0  0  0  0  0  0  0  0
    7.7279    8.1301    1.3693 H   0  0  0  0  0  0  0  0  0  0  0  0
   10.0991    4.4125    1.3189 H   0  0  0  0  0  0  0  0  0  0  0  0
    4.6447    2.6976    0.9179 H   0  0  0  0  0  0  0  0  0  0  0  0
    4.6074    8.0955    1.1881 H   0  0  0  0  0  0  0  0  0  0  0  0
    8.2910    0.0000    1.0470 H   0  0  0  0  0  0  0  0  0  0  0  0
    6.5127    0.8222   -0.1601 H   0  0  0  0  0  0  0  0  0  0  0  0
    6.4124    0.7665    2.1338 H   0  0  0  0  0  0  0  0  0  0  0  0
    2.0705    6.6423    1.2716 H   0  0  0  0  0  0  0  0  0  0  0  0
    2.0879    4.4776    1.9283 H   0  0  0  0  0  0  0  0  0  0  0  0
    2.6384    3.7511   -1.2561 H   0  0  0  0  0  0  0  0  0  0  0  0
    0.2434    5.0923   -2.7240 H   0  0  0  0  0  0  0  0  0  0  0  0
    0.0000    6.6121   -0.9949 H   0  0  0  0  0  0  0  0  0  0  0  0
  1  2  2  0  0  0  0
  1  3  1  0  0  0  0
  1  4  1  0  0  0  0
  2  5  1  0  0  0  0
  2  6  1  0  0  0  0
  3  7  2  0  0  0  0
  3 13  1  0  0  0  0
  4 14  1  0  0  0  0
  5  8  2  0  0  0  0
  5 15  1  0  0  0  0
  6  9  1  0  0  0  0
  7  8  1  0  0  0  0
  7 16  1  0  0  0  0
  8 10  1  0  0  0  0
  9 17  1  0  0  0  0
  9 18  1  6  0  0  0
  9 19  1  1  0  0  0
 10 11  1  6  0  0  0
 10 20  1  0  0  0  0
 10 21  1  1  0  0  0
 11 12  2  0  0  0  0
 11 22  1  0  0  0  0
 12 23  1  6  0  0  0
 12 24  1  0  0  0  0
M  END
>  <Formula> (36)
C10H12O2

>  <Name> (36)
2-METHOXY-4-(2-PROPENYL)-PHENOL

>  <CAS-Nr> (36)
97-53-0

>  <EINECS> (36)
202-589-1

>  <21 CFR> (36)
184.1257, 175.105, 177.2800, 582.60

>  <LD50-rat-oral> (36)
1930

>  <Compound classification> (36)
Phenylpropane

>  <Microorganism> (36)
Streptococcus sp.

>  <Microorganism type> (36)
human pathogen

>  <Publication strain name> (36)
Enterococcus sp.

>  <Microorganism classification> (36)
Bac+

>  <MIC> (36)
1000

>  <Method abbreviation> (36)
ADlT

>  <Ref-Nr> (36)
337

>  <Marker> (36)
0

>  <Method> (36)
Agar dilution test; Inoculum size: loopful; Medium: meat extract + peptone agar - pH: 7.4 (bacteria), Gruetz-III agar - pH= 6.0 (fungi) (consists of Mycopeptone A, malt); Incubation-temperature: 37 (bacteria) 24 (fungi) degrees Centigrade; Incubation-time: 24h (bateria), 21d (fungi); Solubility enhancer: acetone, Tween, glycol [method cited: Weuffen at al.: Pharmazie 18, 420-6 (1963)]

>  <Reference> (36)
Weuffen, W., Richter, L.: Zusammenhaenge zwischen chemischer Konstitution und keimhemmender Wirkung. 24.Mitteilung: Mikrobistatische Eigenschaften von Phenolen und verwandten Verbindungen gegenueber pathogenen Bakterien und Pilzen sowie gegenueber Keimen aus Materialien der Roentgenfilmproduktion; Pharmazie 25, 480-4 (1970)

>  <mol_id> (36)
118

>  <LD50-mouse-oral> (36)
3000

>  <LD50-mou-ip> (36)
500

>  <MolWeight> (36)
164.20

>  <Nickname> (36)
Eugenol

>  <other Names> (36)
3-Methoxy-4-hydroxy-allylbenzene, Allylguaiacol, Eugenic acid, Caryophyllic acid

>  <LD50-mou-iv> (36)
72

$$$$

csChmFindW11180110282D

 14 14  0  0  0  0  0  0  0  0999 V2000
    4.2729    0.9591    0.0005 C   0  0  0  0  0  0  0  0  0  0  0  0
    2.8729    0.9629    0.0006 C   0  0  0  0  0  0  0  0  0  0  0  0
    4.9789    2.1717    0.0000 C   0  0  0  0  0  0  0  0  0  0  0  0
    2.1710    2.1833    0.0002 C   0  0  0  0  0  0  0  0  0  0  0  0
    4.2845    3.3897   -0.0004 C   0  0  0  0  0  0  0  0  0  0  0  0
    2.8836    3.3971   -0.0005 C   0  0  0  0  0  0  0  0  0  0  0  0
    0.6921    2.1791    0.0000 C   0  0  0  0  0  0  0  0  0  0  0  0
    0.0000    3.2071   -0.0003 O   0  0  0  0  0  0  0  0  0  0  0  0
    4.8224    0.0000    0.0009 H   0  0  0  0  0  0  0  0  0  0  0  0
    2.3178    0.0057    0.0011 H   0  0  0  0  0  0  0  0  0  0  0  0
    6.0848    2.1663    0.0000 H   0  0  0  0  0  0  0  0  0  0  0  0
    4.8421    4.3443   -0.0009 H   0  0  0  0  0  0  0  0  0  0  0  0
    2.3223    4.3522   -0.0008 H   0  0  0  0  0  0  0  0  0  0  0  0
    0.2224    1.1623    0.0005 H   0  0  0  0  0  0  0  0  0  0  0  0
  1  2  2  0  0  0  0
  1  3  1  0  0  0  0
  1  9  1  0  0  0  0
  2  4  1  0  0  0  0
  2 10  1  0  0  0  0
  3  5  2  0  0  0  0
  3 11  1  0  0  0  0
  4  6  2  0  0  0  0
  4  7  1  0  0  0  0
  5  6  1  0  0  0  0
  5 12  1  0  0  0  0
  6 13  1  0  0  0  0
  7  8  2  0  0  0  0
  7 14  1  0  0  0  0
M  END
>  <Formula> (37)
C7H6O

>  <Name> (37)
BENZALDEHYDE

>  <CAS-Nr> (37)
100-52-7

>  <EINECS> (37)
202-860-4

>  <21 CFR> (37)
182.60, 582.60

>  <LD50-rat-oral> (37)
1300

>  <Compound classification> (37)
Ar-CHO

>  <Microorganism> (37)
Candida albicans

>  <Microorganism classification> (37)
yeast

>  <MIC> (37)
1000

>  <Method abbreviation> (37)
SDT

>  <Ref-Nr> (37)
351

>  <Marker> (37)
0

>  <Method> (37)
Serial dilution test; Inoculum size: 300000 viable organisms; Medium: Tryptone-yeast-glucose broth; pH: 7.0; Incubation-temperature: 37 degrees Centigrade; Incubation-time: 18-24h; Solubility enhancer: ethanol; Agar diffusion test; Medium: Tryptone-yeast-glucose agar, pH = 5.5; Compound application: 20 microliter of 10% ethanolic stock solution on 9.5 mm disk, Incubation-temperature: 37 degrees Centigrade; Incubation-time: 18-24h

>  <Reference> (37)
Morris, J.A., Khettry, A., Seitz, E.W.: Antimicrobial Activity of Aroma Chemicals and Essential Oils; Journal of the American Oil Chemists Society 56, 595-603 (1979)

>  <mol_id> (37)
155

>  <LD50-mouse-oral> (37)
28

>  <LD50-mou-ip> (37)
9

>  <MolWeight> (37)
106.12

>  <Nickname> (37)
Benzoic aldehyde

>  <other Names> (37)
artificial essential oil of almond

$$$$

csChmFindW11180110282D

 21 20  0  0  0  0  0  0  0  0999 V2000
    3.1203    3.5875   -0.7028 C   0  0  0  0  0  0  0  0  0  0  0  0
    4.8230    2.1695   -0.4432 C   0  0  0  0  0  0  0  0  0  0  0  0
    1.1871    2.5508   -0.9443 C   0  0  0  0  0  0  0  0  0  0  0  0
    6.7499    3.2912   -0.5118 C   0  0  0  0  0  0  0  0  0  0  0  0
    4.6443    1.0394    1.4565 C   0  0  0  0  0  0  0  0  0  0  0  0
    8.5204    1.9611   -0.7540 C   0  0  0  0  0  0  0  0  0  0  0  0
    9.2143    1.4709    1.1449 O   0  0  0  0  0  0  0  0  0  0  0  0
    3.3990    4.5210   -2.0277 H   0  0  0  0  0  0  0  0  0  0  0  0
    3.0504    4.5933    0.5944 H   0  0  0  0  0  0  0  0  0  0  0  0
    4.7953    1.0965   -1.6975 H   0  0  0  0  0  0  0  0  0  0  0  0
    0.0000    3.6348   -1.2488 H   0  0  0  0  0  0  0  0  0  0  0  0
    0.7939    1.7275    0.4136 H   0  0  0  0  0  0  0  0  0  0  0  0
    1.2482    1.4896   -2.1878 H   0  0  0  0  0  0  0  0  0  0  0  0
    6.9188    4.1662    0.8683 H   0  0  0  0  0  0  0  0  0  0  0  0
    6.7242    4.3386   -1.7765 H   0  0  0  0  0  0  0  0  0  0  0  0
    6.0163    0.1900    1.7364 H   0  0  0  0  0  0  0  0  0  0  0  0
    3.3839    0.0000    1.3912 H   0  0  0  0  0  0  0  0  0  0  0  0
    4.4114    2.0598    2.7134 H   0  0  0  0  0  0  0  0  0  0  0  0
    9.7095    2.7505   -1.5748 H   0  0  0  0  0  0  0  0  0  0  0  0
    8.1257    0.5941   -1.5788 H   0  0  0  0  0  0  0  0  0  0  0  0
   10.2702    0.5516    0.9650 H   0  0  0  0  0  0  0  0  0  0  0  0
  1  2  1  0  0  0  0
  1  3  1  0  0  0  0
  1  8  1  6  0  0  0
  1  9  1  1  0  0  0
  2  4  1  0  0  0  0
  2  5  1  1  0  0  0
  2 10  1  6  0  0  0
  3 11  1  0  0  0  0
  3 12  1  1  0  0  0
  3 13  1  6  0  0  0
  4  6  1  0  0  0  0
  4 14  1  1  0  0  0
  4 15  1  6  0  0  0
  5 16  1  0  0  0  0
  5 17  1  0  0  0  0
  5 18  1  1  0  0  0
  6  7  1  1  0  0  0
  6 19  1  6  0  0  0
  6 20  1  6  0  0  0
  7 21  1  0  0  0  0
M  END
>  <Formula> (38)
C6H14O

>  <Name> (38)
3-METHYL-PENTAN-1-OL

>  <CAS-Nr> (38)
589-35-5

>  <EINECS> (38)
209-644-9

>  <21 CFR> (38)
FDA/CFSAN's PAFA database

>  <Compound classification> (38)
Ali-OH

>  <Microorganism> (38)
Corynebacterium sp.

>  <Publication strain name> (38)
diphtheroid

>  <Microorganism classification> (38)
Bac+

>  <Inhibition zone> (38)
0

>  <ADT evaluation> (38)
1

>  <Method abbreviation> (38)
ADT

>  <Ref-Nr> (38)
351

>  <Marker> (38)
0

>  <Method> (38)
Serial dilution test; Inoculum size: 300000 viable organisms; Medium: Tryptone-yeast-glucose broth; pH: 7.0; Incubation-temperature: 37 degrees Centigrade; Incubation-time: 18-24h; Solubility enhancer: ethanol; Agar diffusion test; Medium: Tryptone-yeast-glucose agar, pH = 5.5; Compound application: 20 microliter of 10% ethanolic stock solution on 9.5 mm disk, Incubation-temperature: 37 degrees Centigrade; Incubation-time: 18-24h

>  <Reference> (38)
Morris, J.A., Khettry, A., Seitz, E.W.: Antimicrobial Activity of Aroma Chemicals and Essential Oils; Journal of the American Oil Chemists Society 56, 595-603 (1979)

>  <mol_id> (38)
1086

>  <MolWeight> (38)
102.17

>  <Nickname> (38)
3-Methylpentanol

$$$$

csChmFindW11180110282D

 21 20  0  0  0  0  0  0  0  0999 V2000
    3.1203    3.5875   -0.7028 C   0  0  0  0  0  0  0  0  0  0  0  0
    4.8230    2.1695   -0.4432 C   0  0  0  0  0  0  0  0  0  0  0  0
    1.1871    2.5508   -0.9443 C   0  0  0  0  0  0  0  0  0  0  0  0
    6.7499    3.2912   -0.5118 C   0  0  0  0  0  0  0  0  0  0  0  0
    4.6443    1.0394    1.4565 C   0  0  0  0  0  0  0  0  0  0  0  0
    8.5204    1.9611   -0.7540 C   0  0  0  0  0  0  0  0  0  0  0  0
    9.2143    1.4709    1.1449 O   0  0  0  0  0  0  0  0  0  0  0  0
    3.3990    4.5210   -2.0277 H   0  0  0  0  0  0  0  0  0  0  0  0
    3.0504    4.5933    0.5944 H   0  0  0  0  0  0  0  0  0  0  0  0
    4.7953    1.0965   -1.6975 H   0  0  0  0  0  0  0  0  0  0  0  0
    0.0000    3.6348   -1.2488 H   0  0  0  0  0  0  0  0  0  0  0  0
    0.7939    1.7275    0.4136 H   0  0  0  0  0  0  0  0  0  0  0  0
    1.2482    1.4896   -2.1878 H   0  0  0  0  0  0  0  0  0  0  0  0
    6.9188    4.1662    0.8683 H   0  0  0  0  0  0  0  0  0  0  0  0
    6.7242    4.3386   -1.7765 H   0  0  0  0  0  0  0  0  0  0  0  0
    6.0163    0.1900    1.7364 H   0  0  0  0  0  0  0  0  0  0  0  0
    3.3839    0.0000    1.3912 H   0  0  0  0  0  0  0  0  0  0  0  0
    4.4114    2.0598    2.7134 H   0  0  0  0  0  0  0  0  0  0  0  0
    9.7095    2.7505   -1.5748 H   0  0  0  0  0  0  0  0  0  0  0  0
    8.1257    0.5941   -1.5788 H   0  0  0  0  0  0  0  0  0  0  0  0
   10.2702    0.5516    0.9650 H   0  0  0  0  0  0  0  0  0  0  0  0
  1  2  1  0  0  0  0
  1  3  1  0  0  0  0
  1  8  1  6  0  0  0
  1  9  1  1  0  0  0
  2  4  1  0  0  0  0
  2  5  1  1  0  0  0
  2 10  1  6  0  0  0
  3 11  1  0  0  0  0
  3 12  1  1  0  0  0
  3 13  1  6  0  0  0
  4  6  1  0  0  0  0
  4 14  1  1  0  0  0
  4 15  1  6  0  0  0
  5 16  1  0  0  0  0
  5 17  1  0  0  0  0
  5 18  1  1  0  0  0
  6  7  1  1  0  0  0
  6 19  1  6  0  0  0
  6 20  1  6  0  0  0
  7 21  1  0  0  0  0
M  END
>  <Formula> (39)
C6H14O

>  <Name> (39)
3-METHYL-PENTAN-1-OL

>  <CAS-Nr> (39)
589-35-5

>  <EINECS> (39)
209-644-9

>  <21 CFR> (39)
FDA/CFSAN's PAFA database

>  <Compound classification> (39)
Ali-OH

>  <Microorganism> (39)
Staphylococcus aureus

>  <Microorganism classification> (39)
Bac+

>  <Inhibition zone> (39)
0

>  <ADT evaluation> (39)
1

>  <Method abbreviation> (39)
ADT

>  <Ref-Nr> (39)
351

>  <Marker> (39)
0

>  <Method> (39)
Serial dilution test; Inoculum size: 300000 viable organisms; Medium: Tryptone-yeast-glucose broth; pH: 7.0; Incubation-temperature: 37 degrees Centigrade; Incubation-time: 18-24h; Solubility enhancer: ethanol; Agar diffusion test; Medium: Tryptone-yeast-glucose agar, pH = 5.5; Compound application: 20 microliter of 10% ethanolic stock solution on 9.5 mm disk, Incubation-temperature: 37 degrees Centigrade; Incubation-time: 18-24h

>  <Reference> (39)
Morris, J.A., Khettry, A., Seitz, E.W.: Antimicrobial Activity of Aroma Chemicals and Essential Oils; Journal of the American Oil Chemists Society 56, 595-603 (1979)

>  <mol_id> (39)
1086

>  <MolWeight> (39)
102.17

>  <Nickname> (39)
3-Methylpentanol

$$$$

csChmFindW11180110282D

 21 20  0  0  0  0  0  0  0  0999 V2000
    3.1203    3.5875   -0.7028 C   0  0  0  0  0  0  0  0  0  0  0  0
    4.8230    2.1695   -0.4432 C   0  0  0  0  0  0  0  0  0  0  0  0
    1.1871    2.5508   -0.9443 C   0  0  0  0  0  0  0  0  0  0  0  0
    6.7499    3.2912   -0.5118 C   0  0  0  0  0  0  0  0  0  0  0  0
    4.6443    1.0394    1.4565 C   0  0  0  0  0  0  0  0  0  0  0  0
    8.5204    1.9611   -0.7540 C   0  0  0  0  0  0  0  0  0  0  0  0
    9.2143    1.4709    1.1449 O   0  0  0  0  0  0  0  0  0  0  0  0
    3.3990    4.5210   -2.0277 H   0  0  0  0  0  0  0  0  0  0  0  0
    3.0504    4.5933    0.5944 H   0  0  0  0  0  0  0  0  0  0  0  0
    4.7953    1.0965   -1.6975 H   0  0  0  0  0  0  0  0  0  0  0  0
    0.0000    3.6348   -1.2488 H   0  0  0  0  0  0  0  0  0  0  0  0
    0.7939    1.7275    0.4136 H   0  0  0  0  0  0  0  0  0  0  0  0
    1.2482    1.4896   -2.1878 H   0  0  0  0  0  0  0  0  0  0  0  0
    6.9188    4.1662    0.8683 H   0  0  0  0  0  0  0  0  0  0  0  0
    6.7242    4.3386   -1.7765 H   0  0  0  0  0  0  0  0  0  0  0  0
    6.0163    0.1900    1.7364 H   0  0  0  0  0  0  0  0  0  0  0  0
    3.3839    0.0000    1.3912 H   0  0  0  0  0  0  0  0  0  0  0  0
    4.4114    2.0598    2.7134 H   0  0  0  0  0  0  0  0  0  0  0  0
    9.7095    2.7505   -1.5748 H   0  0  0  0  0  0  0  0  0  0  0  0
    8.1257    0.5941   -1.5788 H   0  0  0  0  0  0  0  0  0  0  0  0
   10.2702    0.5516    0.9650 H   0  0  0  0  0  0  0  0  0  0  0  0
  1  2  1  0  0  0  0
  1  3  1  0  0  0  0
  1  8  1  6  0  0  0
  1  9  1  1  0  0  0
  2  4  1  0  0  0  0
  2  5  1  1  0  0  0
  2 10  1  6  0  0  0
  3 11  1  0  0  0  0
  3 12  1  1  0  0  0
  3 13  1  6  0  0  0
  4  6  1  0  0  0  0
  4 14  1  1  0  0  0
  4 15  1  6  0  0  0
  5 16  1  0  0  0  0
  5 17  1  0  0  0  0
  5 18  1  1  0  0  0
  6  7  1  1  0  0  0
  6 19  1  6  0  0  0
  6 20  1  6  0  0  0
  7 21  1  0  0  0  0
M  END
>  <Formula> (40)
C6H14O

>  <Name> (40)
3-METHYL-PENTAN-1-OL

>  <CAS-Nr> (40)
589-35-5

>  <EINECS> (40)
209-644-9

>  <21 CFR> (40)
FDA/CFSAN's PAFA database

>  <Compound classification> (40)
Ali-OH

>  <Microorganism> (40)
Eschericia coli

>  <Microorganism classification> (40)
Bac-

>  <Inhibition zone> (40)
0

>  <ADT evaluation> (40)
1

>  <Method abbreviation> (40)
ADT

>  <Ref-Nr> (40)
351

>  <Marker> (40)
0

>  <Method> (40)
Serial dilution test; Inoculum size: 300000 viable organisms; Medium: Tryptone-yeast-glucose broth; pH: 7.0; Incubation-temperature: 37 degrees Centigrade; Incubation-time: 18-24h; Solubility enhancer: ethanol; Agar diffusion test; Medium: Tryptone-yeast-glucose agar, pH = 5.5; Compound application: 20 microliter of 10% ethanolic stock solution on 9.5 mm disk, Incubation-temperature: 37 degrees Centigrade; Incubation-time: 18-24h

>  <Reference> (40)
Morris, J.A., Khettry, A., Seitz, E.W.: Antimicrobial Activity of Aroma Chemicals and Essential Oils; Journal of the American Oil Chemists Society 56, 595-603 (1979)

>  <mol_id> (40)
1086

>  <MolWeight> (40)
102.17

>  <Nickname> (40)
3-Methylpentanol

$$$$

csChmFindW11180110282D

 21 20  0  0  0  0  0  0  0  0999 V2000
    3.1203    3.5875   -0.7028 C   0  0  0  0  0  0  0  0  0  0  0  0
    4.8230    2.1695   -0.4432 C   0  0  0  0  0  0  0  0  0  0  0  0
    1.1871    2.5508   -0.9443 C   0  0  0  0  0  0  0  0  0  0  0  0
    6.7499    3.2912   -0.5118 C   0  0  0  0  0  0  0  0  0  0  0  0
    4.6443    1.0394    1.4565 C   0  0  0  0  0  0  0  0  0  0  0  0
    8.5204    1.9611   -0.7540 C   0  0  0  0  0  0  0  0  0  0  0  0
    9.2143    1.4709    1.1449 O   0  0  0  0  0  0  0  0  0  0  0  0
    3.3990    4.5210   -2.0277 H   0  0  0  0  0  0  0  0  0  0  0  0
    3.0504    4.5933    0.5944 H   0  0  0  0  0  0  0  0  0  0  0  0
    4.7953    1.0965   -1.6975 H   0  0  0  0  0  0  0  0  0  0  0  0
    0.0000    3.6348   -1.2488 H   0  0  0  0  0  0  0  0  0  0  0  0
    0.7939    1.7275    0.4136 H   0  0  0  0  0  0  0  0  0  0  0  0
    1.2482    1.4896   -2.1878 H   0  0  0  0  0  0  0  0  0  0  0  0
    6.9188    4.1662    0.8683 H   0  0  0  0  0  0  0  0  0  0  0  0
    6.7242    4.3386   -1.7765 H   0  0  0  0  0  0  0  0  0  0  0  0
    6.0163    0.1900    1.7364 H   0  0  0  0  0  0  0  0  0  0  0  0
    3.3839    0.0000    1.3912 H   0  0  0  0  0  0  0  0  0  0  0  0
    4.4114    2.0598    2.7134 H   0  0  0  0  0  0  0  0  0  0  0  0
    9.7095    2.7505   -1.5748 H   0  0  0  0  0  0  0  0  0  0  0  0
    8.1257    0.5941   -1.5788 H   0  0  0  0  0  0  0  0  0  0  0  0
   10.2702    0.5516    0.9650 H   0  0  0  0  0  0  0  0  0  0  0  0
  1  2  1  0  0  0  0
  1  3  1  0  0  0  0
  1  8  1  6  0  0  0
  1  9  1  1  0  0  0
  2  4  1  0  0  0  0
  2  5  1  1  0  0  0
  2 10  1  6  0  0  0
  3 11  1  0  0  0  0
  3 12  1  1  0  0  0
  3 13  1  6  0  0  0
  4  6  1  0  0  0  0
  4 14  1  1  0  0  0
  4 15  1  6  0  0  0
  5 16  1  0  0  0  0
  5 17  1  0  0  0  0
  5 18  1  1  0  0  0
  6  7  1  1  0  0  0
  6 19  1  6  0  0  0
  6 20  1  6  0  0  0
  7 21  1  0  0  0  0
M  END
>  <Formula> (41)
C6H14O

>  <Name> (41)
3-METHYL-PENTAN-1-OL

>  <CAS-Nr> (41)
589-35-5

>  <EINECS> (41)
209-644-9

>  <21 CFR> (41)
FDA/CFSAN's PAFA database

>  <Compound classification> (41)
Ali-OH

>  <Microorganism> (41)
Candida albicans

>  <Microorganism classification> (41)
yeast

>  <Inhibition zone> (41)
0

>  <ADT evaluation> (41)
1

>  <Method abbreviation> (41)
ADT

>  <Ref-Nr> (41)
351

>  <Marker> (41)
0

>  <Method> (41)
Serial dilution test; Inoculum size: 300000 viable organisms; Medium: Tryptone-yeast-glucose broth; pH: 7.0; Incubation-temperature: 37 degrees Centigrade; Incubation-time: 18-24h; Solubility enhancer: ethanol; Agar diffusion test; Medium: Tryptone-yeast-glucose agar, pH = 5.5; Compound application: 20 microliter of 10% ethanolic stock solution on 9.5 mm disk, Incubation-temperature: 37 degrees Centigrade; Incubation-time: 18-24h

>  <Reference> (41)
Morris, J.A., Khettry, A., Seitz, E.W.: Antimicrobial Activity of Aroma Chemicals and Essential Oils; Journal of the American Oil Chemists Society 56, 595-603 (1979)

>  <mol_id> (41)
1086

>  <MolWeight> (41)
102.17

>  <Nickname> (41)
3-Methylpentanol

$$$$

csChmFindW11180110282D

 22 23  0  0  0  0  0  0  0  0999 V2000
    4.7044    1.1185    0.9043 C   0  0  0  0  0  0  0  0  0  0  0  0
    5.9386    1.7997    0.7944 C   0  0  0  0  0  0  0  0  0  0  0  0
    3.4697    1.8700    0.9153 C   0  0  0  0  0  0  0  0  0  0  0  0
    5.9875    3.2449    0.6920 C   0  0  0  0  0  0  0  0  0  0  0  0
    7.0865    0.9779    0.8049 O   0  0  0  0  0  0  0  0  0  0  0  0
    3.5095    3.3142    0.8125 C   0  0  0  0  0  0  0  0  0  0  0  0
    2.1817    1.2063    1.0251 C   0  0  0  0  0  0  0  0  0  0  0  0
    4.7929    3.9773    0.7015 C   0  0  0  0  0  0  0  0  0  0  0  0
    8.3571    1.6426    0.5845 C   0  0  0  0  0  0  0  0  0  0  0  0
    2.2643    4.0597    0.8255 C   0  0  0  0  0  0  0  0  0  0  0  0
    0.9965    1.9514    1.0306 C   0  0  0  0  0  0  0  0  0  0  0  0
    1.0373    3.3933    0.9302 C   0  0  0  0  0  0  0  0  0  0  0  0
    4.6801    0.0000    0.9847 H   0  0  0  0  0  0  0  0  0  0  0  0
    6.9737    3.7717    0.6078 H   0  0  0  0  0  0  0  0  0  0  0  0
    2.1613    0.0865    1.1045 H   0  0  0  0  0  0  0  0  0  0  0  0
    4.8144    5.0980    0.6234 H   0  0  0  0  0  0  0  0  0  0  0  0
    9.1071    0.7806    0.5665 H   0  0  0  0  0  0  0  0  0  0  0  0
    8.5897    2.3572    1.4421 H   0  0  0  0  0  0  0  0  0  0  0  0
    8.3599    2.1975   -0.4109 H   0  0  0  0  0  0  0  0  0  0  0  0
    2.3082    5.1792    0.7507 H   0  0  0  0  0  0  0  0  0  0  0  0
    0.0000    1.4409    1.1129 H   0  0  0  0  0  0  0  0  0  0  0  0
    0.0723    3.9663    0.9376 H   0  0  0  0  0  0  0  0  0  0  0  0
  1  2  2  0  0  0  0
  1  3  1  0  0  0  0
  1 13  1  0  0  0  0
  2  4  1  0  0  0  0
  2  5  1  0  0  0  0
  3  6  2  0  0  0  0
  3  7  1  0  0  0  0
  4  8  2  0  0  0  0
  4 14  1  0  0  0  0
  5  9  1  0  0  0  0
  6  8  1  0  0  0  0
  6 10  1  0  0  0  0
  7 11  2  0  0  0  0
  7 15  1  0  0  0  0
  8 16  1  0  0  0  0
  9 17  1  0  0  0  0
  9 18  1  1  0  0  0
  9 19  1  6  0  0  0
 10 12  2  0  0  0  0
 10 20  1  0  0  0  0
 11 12  1  0  0  0  0
 11 21  1  0  0  0  0
 12 22  1  0  0  0  0
M  END
>  <Formula> (42)
C11H10O

>  <Name> (42)
2-METHOXY-NAPHTHALENE

>  <CAS-Nr> (42)
93-04-9

>  <EINECS> (42)
202-213-6

>  <21 CFR> (42)
FDA/CFSAN's PAFA database

>  <Compound classification> (42)
Ar-R

>  <Microorganism> (42)
Corynebacterium sp.

>  <Publication strain name> (42)
diphtheroid

>  <Microorganism classification> (42)
Bac+

>  <Inhibition zone> (42)
0

>  <ADT evaluation> (42)
1

>  <Method abbreviation> (42)
ADT

>  <Ref-Nr> (42)
351

>  <Marker> (42)
0

>  <Method> (42)
Serial dilution test; Inoculum size: 300000 viable organisms; Medium: Tryptone-yeast-glucose broth; pH: 7.0; Incubation-temperature: 37 degrees Centigrade; Incubation-time: 18-24h; Solubility enhancer: ethanol; Agar diffusion test; Medium: Tryptone-yeast-glucose agar, pH = 5.5; Compound application: 20 microliter of 10% ethanolic stock solution on 9.5 mm disk, Incubation-temperature: 37 degrees Centigrade; Incubation-time: 18-24h

>  <Reference> (42)
Morris, J.A., Khettry, A., Seitz, E.W.: Antimicrobial Activity of Aroma Chemicals and Essential Oils; Journal of the American Oil Chemists Society 56, 595-603 (1979)

>  <mol_id> (42)
1087

>  <MolWeight> (42)
158.19

>  <Nickname> (42)
Nerolin

>  <other Names> (42)
beta-Naphthyl methyl ether, Methyl-2-naphthyl ether

$$$$

csChmFindW11180110282D

 22 23  0  0  0  0  0  0  0  0999 V2000
    4.7044    1.1185    0.9043 C   0  0  0  0  0  0  0  0  0  0  0  0
    5.9386    1.7997    0.7944 C   0  0  0  0  0  0  0  0  0  0  0  0
    3.4697    1.8700    0.9153 C   0  0  0  0  0  0  0  0  0  0  0  0
    5.9875    3.2449    0.6920 C   0  0  0  0  0  0  0  0  0  0  0  0
    7.0865    0.9779    0.8049 O   0  0  0  0  0  0  0  0  0  0  0  0
    3.5095    3.3142    0.8125 C   0  0  0  0  0  0  0  0  0  0  0  0
    2.1817    1.2063    1.0251 C   0  0  0  0  0  0  0  0  0  0  0  0
    4.7929    3.9773    0.7015 C   0  0  0  0  0  0  0  0  0  0  0  0
    8.3571    1.6426    0.5845 C   0  0  0  0  0  0  0  0  0  0  0  0
    2.2643    4.0597    0.8255 C   0  0  0  0  0  0  0  0  0  0  0  0
    0.9965    1.9514    1.0306 C   0  0  0  0  0  0  0  0  0  0  0  0
    1.0373    3.3933    0.9302 C   0  0  0  0  0  0  0  0  0  0  0  0
    4.6801    0.0000    0.9847 H   0  0  0  0  0  0  0  0  0  0  0  0
    6.9737    3.7717    0.6078 H   0  0  0  0  0  0  0  0  0  0  0  0
    2.1613    0.0865    1.1045 H   0  0  0  0  0  0  0  0  0  0  0  0
    4.8144    5.0980    0.6234 H   0  0  0  0  0  0  0  0  0  0  0  0
    9.1071    0.7806    0.5665 H   0  0  0  0  0  0  0  0  0  0  0  0
    8.5897    2.3572    1.4421 H   0  0  0  0  0  0  0  0  0  0  0  0
    8.3599    2.1975   -0.4109 H   0  0  0  0  0  0  0  0  0  0  0  0
    2.3082    5.1792    0.7507 H   0  0  0  0  0  0  0  0  0  0  0  0
    0.0000    1.4409    1.1129 H   0  0  0  0  0  0  0  0  0  0  0  0
    0.0723    3.9663    0.9376 H   0  0  0  0  0  0  0  0  0  0  0  0
  1  2  2  0  0  0  0
  1  3  1  0  0  0  0
  1 13  1  0  0  0  0
  2  4  1  0  0  0  0
  2  5  1  0  0  0  0
  3  6  2  0  0  0  0
  3  7  1  0  0  0  0
  4  8  2  0  0  0  0
  4 14  1  0  0  0  0
  5  9  1  0  0  0  0
  6  8  1  0  0  0  0
  6 10  1  0  0  0  0
  7 11  2  0  0  0  0
  7 15  1  0  0  0  0
  8 16  1  0  0  0  0
  9 17  1  0  0  0  0
  9 18  1  1  0  0  0
  9 19  1  6  0  0  0
 10 12  2  0  0  0  0
 10 20  1  0  0  0  0
 11 12  1  0  0  0  0
 11 21  1  0  0  0  0
 12 22  1  0  0  0  0
M  END
>  <Formula> (43)
C11H10O

>  <Name> (43)
2-METHOXY-NAPHTHALENE

>  <CAS-Nr> (43)
93-04-9

>  <EINECS> (43)
202-213-6

>  <21 CFR> (43)
FDA/CFSAN's PAFA database

>  <Compound classification> (43)
Ar-R

>  <Microorganism> (43)
Staphylococcus aureus

>  <Microorganism classification> (43)
Bac+

>  <Inhibition zone> (43)
0

>  <ADT evaluation> (43)
1

>  <Method abbreviation> (43)
ADT

>  <Ref-Nr> (43)
351

>  <Marker> (43)
0

>  <Method> (43)
Serial dilution test; Inoculum size: 300000 viable organisms; Medium: Tryptone-yeast-glucose broth; pH: 7.0; Incubation-temperature: 37 degrees Centigrade; Incubation-time: 18-24h; Solubility enhancer: ethanol; Agar diffusion test; Medium: Tryptone-yeast-glucose agar, pH = 5.5; Compound application: 20 microliter of 10% ethanolic stock solution on 9.5 mm disk, Incubation-temperature: 37 degrees Centigrade; Incubation-time: 18-24h

>  <Reference> (43)
Morris, J.A., Khettry, A., Seitz, E.W.: Antimicrobial Activity of Aroma Chemicals and Essential Oils; Journal of the American Oil Chemists Society 56, 595-603 (1979)

>  <mol_id> (43)
1087

>  <MolWeight> (43)
158.19

>  <Nickname> (43)
Nerolin

>  <other Names> (43)
beta-Naphthyl methyl ether, Methyl-2-naphthyl ether

$$$$

csChmFindW11180110282D

 22 23  0  0  0  0  0  0  0  0999 V2000
    4.7044    1.1185    0.9043 C   0  0  0  0  0  0  0  0  0  0  0  0
    5.9386    1.7997    0.7944 C   0  0  0  0  0  0  0  0  0  0  0  0
    3.4697    1.8700    0.9153 C   0  0  0  0  0  0  0  0  0  0  0  0
    5.9875    3.2449    0.6920 C   0  0  0  0  0  0  0  0  0  0  0  0
    7.0865    0.9779    0.8049 O   0  0  0  0  0  0  0  0  0  0  0  0
    3.5095    3.3142    0.8125 C   0  0  0  0  0  0  0  0  0  0  0  0
    2.1817    1.2063    1.0251 C   0  0  0  0  0  0  0  0  0  0  0  0
    4.7929    3.9773    0.7015 C   0  0  0  0  0  0  0  0  0  0  0  0
    8.3571    1.6426    0.5845 C   0  0  0  0  0  0  0  0  0  0  0  0
    2.2643    4.0597    0.8255 C   0  0  0  0  0  0  0  0  0  0  0  0
    0.9965    1.9514    1.0306 C   0  0  0  0  0  0  0  0  0  0  0  0
    1.0373    3.3933    0.9302 C   0  0  0  0  0  0  0  0  0  0  0  0
    4.6801    0.0000    0.9847 H   0  0  0  0  0  0  0  0  0  0  0  0
    6.9737    3.7717    0.6078 H   0  0  0  0  0  0  0  0  0  0  0  0
    2.1613    0.0865    1.1045 H   0  0  0  0  0  0  0  0  0  0  0  0
    4.8144    5.0980    0.6234 H   0  0  0  0  0  0  0  0  0  0  0  0
    9.1071    0.7806    0.5665 H   0  0  0  0  0  0  0  0  0  0  0  0
    8.5897    2.3572    1.4421 H   0  0  0  0  0  0  0  0  0  0  0  0
    8.3599    2.1975   -0.4109 H   0  0  0  0  0  0  0  0  0  0  0  0
    2.3082    5.1792    0.7507 H   0  0  0  0  0  0  0  0  0  0  0  0
    0.0000    1.4409    1.1129 H   0  0  0  0  0  0  0  0  0  0  0  0
    0.0723    3.9663    0.9376 H   0  0  0  0  0  0  0  0  0  0  0  0
  1  2  2  0  0  0  0
  1  3  1  0  0  0  0
  1 13  1  0  0  0  0
  2  4  1  0  0  0  0
  2  5  1  0  0  0  0
  3  6  2  0  0  0  0
  3  7  1  0  0  0  0
  4  8  2  0  0  0  0
  4 14  1  0  0  0  0
  5  9  1  0  0  0  0
  6  8  1  0  0  0  0
  6 10  1  0  0  0  0
  7 11  2  0  0  0  0
  7 15  1  0  0  0  0
  8 16  1  0  0  0  0
  9 17  1  0  0  0  0
  9 18  1  1  0  0  0
  9 19  1  6  0  0  0
 10 12  2  0  0  0  0
 10 20  1  0  0  0  0
 11 12  1  0  0  0  0
 11 21  1  0  0  0  0
 12 22  1  0  0  0  0
M  END
>  <Formula> (44)
C11H10O

>  <Name> (44)
2-METHOXY-NAPHTHALENE

>  <CAS-Nr> (44)
93-04-9

>  <EINECS> (44)
202-213-6

>  <21 CFR> (44)
FDA/CFSAN's PAFA database

>  <Compound classification> (44)
Ar-R

>  <Microorganism> (44)
Eschericia coli

>  <Microorganism classification> (44)
Bac-

>  <Inhibition zone> (44)
0

>  <ADT evaluation> (44)
1

>  <Method abbreviation> (44)
ADT

>  <Ref-Nr> (44)
351

>  <Marker> (44)
0

>  <Method> (44)
Serial dilution test; Inoculum size: 300000 viable organisms; Medium: Tryptone-yeast-glucose broth; pH: 7.0; Incubation-temperature: 37 degrees Centigrade; Incubation-time: 18-24h; Solubility enhancer: ethanol; Agar diffusion test; Medium: Tryptone-yeast-glucose agar, pH = 5.5; Compound application: 20 microliter of 10% ethanolic stock solution on 9.5 mm disk, Incubation-temperature: 37 degrees Centigrade; Incubation-time: 18-24h

>  <Reference> (44)
Morris, J.A., Khettry, A., Seitz, E.W.: Antimicrobial Activity of Aroma Chemicals and Essential Oils; Journal of the American Oil Chemists Society 56, 595-603 (1979)

>  <mol_id> (44)
1087

>  <MolWeight> (44)
158.19

>  <Nickname> (44)
Nerolin

>  <other Names> (44)
beta-Naphthyl methyl ether, Methyl-2-naphthyl ether

$$$$

csChmFindW11180110282D

 22 23  0  0  0  0  0  0  0  0999 V2000
    4.7044    1.1185    0.9043 C   0  0  0  0  0  0  0  0  0  0  0  0
    5.9386    1.7997    0.7944 C   0  0  0  0  0  0  0  0  0  0  0  0
    3.4697    1.8700    0.9153 C   0  0  0  0  0  0  0  0  0  0  0  0
    5.9875    3.2449    0.6920 C   0  0  0  0  0  0  0  0  0  0  0  0
    7.0865    0.9779    0.8049 O   0  0  0  0  0  0  0  0  0  0  0  0
    3.5095    3.3142    0.8125 C   0  0  0  0  0  0  0  0  0  0  0  0
    2.1817    1.2063    1.0251 C   0  0  0  0  0  0  0  0  0  0  0  0
    4.7929    3.9773    0.7015 C   0  0  0  0  0  0  0  0  0  0  0  0
    8.3571    1.6426    0.5845 C   0  0  0  0  0  0  0  0  0  0  0  0
    2.2643    4.0597    0.8255 C   0  0  0  0  0  0  0  0  0  0  0  0
    0.9965    1.9514    1.0306 C   0  0  0  0  0  0  0  0  0  0  0  0
    1.0373    3.3933    0.9302 C   0  0  0  0  0  0  0  0  0  0  0  0
    4.6801    0.0000    0.9847 H   0  0  0  0  0  0  0  0  0  0  0  0
    6.9737    3.7717    0.6078 H   0  0  0  0  0  0  0  0  0  0  0  0
    2.1613    0.0865    1.1045 H   0  0  0  0  0  0  0  0  0  0  0  0
    4.8144    5.0980    0.6234 H   0  0  0  0  0  0  0  0  0  0  0  0
    9.1071    0.7806    0.5665 H   0  0  0  0  0  0  0  0  0  0  0  0
    8.5897    2.3572    1.4421 H   0  0  0  0  0  0  0  0  0  0  0  0
    8.3599    2.1975   -0.4109 H   0  0  0  0  0  0  0  0  0  0  0  0
    2.3082    5.1792    0.7507 H   0  0  0  0  0  0  0  0  0  0  0  0
    0.0000    1.4409    1.1129 H   0  0  0  0  0  0  0  0  0  0  0  0
    0.0723    3.9663    0.9376 H   0  0  0  0  0  0  0  0  0  0  0  0
  1  2  2  0  0  0  0
  1  3  1  0  0  0  0
  1 13  1  0  0  0  0
  2  4  1  0  0  0  0
  2  5  1  0  0  0  0
  3  6  2  0  0  0  0
  3  7  1  0  0  0  0
  4  8  2  0  0  0  0
  4 14  1  0  0  0  0
  5  9  1  0  0  0  0
  6  8  1  0  0  0  0
  6 10  1  0  0  0  0
  7 11  2  0  0  0  0
  7 15  1  0  0  0  0
  8 16  1  0  0  0  0
  9 17  1  0  0  0  0
  9 18  1  1  0  0  0
  9 19  1  6  0  0  0
 10 12  2  0  0  0  0
 10 20  1  0  0  0  0
 11 12  1  0  0  0  0
 11 21  1  0  0  0  0
 12 22  1  0  0  0  0
M  END
>  <Formula> (45)
C11H10O

>  <Name> (45)
2-METHOXY-NAPHTHALENE

>  <CAS-Nr> (45)
93-04-9

>  <EINECS> (45)
202-213-6

>  <21 CFR> (45)
FDA/CFSAN's PAFA database

>  <Compound classification> (45)
Ar-R

>  <Microorganism> (45)
Candida albicans

>  <Microorganism classification> (45)
yeast

>  <Inhibition zone> (45)
0

>  <ADT evaluation> (45)
1

>  <Method abbreviation> (45)
ADT

>  <Ref-Nr> (45)
351

>  <Marker> (45)
0

>  <Method> (45)
Serial dilution test; Inoculum size: 300000 viable organisms; Medium: Tryptone-yeast-glucose broth; pH: 7.0; Incubation-temperature: 37 degrees Centigrade; Incubation-time: 18-24h; Solubility enhancer: ethanol; Agar diffusion test; Medium: Tryptone-yeast-glucose agar, pH = 5.5; Compound application: 20 microliter of 10% ethanolic stock solution on 9.5 mm disk, Incubation-temperature: 37 degrees Centigrade; Incubation-time: 18-24h

>  <Reference> (45)
Morris, J.A., Khettry, A., Seitz, E.W.: Antimicrobial Activity of Aroma Chemicals and Essential Oils; Journal of the American Oil Chemists Society 56, 595-603 (1979)

>  <mol_id> (45)
1087

>  <MolWeight> (45)
158.19

>  <Nickname> (45)
Nerolin

>  <other Names> (45)
beta-Naphthyl methyl ether, Methyl-2-naphthyl ether

$$$$

csChmFindW11180110282D

 44 46  0  0  0  0  0  0  0  0999 V2000
    5.0432    3.7756    0.9916 C   0  0  0  0  0  0  0  0  0  0  0  0
    5.1590    1.8635    1.4075 C   0  0  0  0  0  0  0  0  0  0  0  0
    3.1826    3.8846    0.3958 C   0  0  0  0  0  0  0  0  0  0  0  0
    6.4421    4.2456   -0.3111 C   0  0  0  0  0  0  0  0  0  0  0  0
    4.9969    5.1984    2.3173 C   0  0  0  0  0  0  0  0  0  0  0  0
    4.0138    1.0243    0.0309 C   0  0  0  0  0  0  0  0  0  0  0  0
    4.6315    1.3947    3.2281 C   0  0  0  0  0  0  0  0  0  0  0  0
    3.0145    2.4478   -0.8919 C   0  0  0  0  0  0  0  0  0  0  0  0
    2.7885    5.7744    0.1103 C   0  0  0  0  0  0  0  0  0  0  0  0
    6.6909    6.1193   -0.6721 C   0  0  0  0  0  0  0  0  0  0  0  0
    4.2295    6.6173    1.1823 C   0  0  0  0  0  0  0  0  0  0  0  0
    1.0480    6.2547    0.8814 C   0  0  0  0  0  0  0  0  0  0  0  0
    2.7386    6.2352   -1.7902 C   0  0  0  0  0  0  0  0  0  0  0  0
    5.6194    7.2653    0.0243 C   0  0  0  0  0  0  0  0  0  0  0  0
    8.1212    6.6586   -1.7925 C   0  0  0  0  0  0  0  0  0  0  0  0
    5.6220    9.1589   -0.2835 C   0  0  0  0  0  0  0  0  0  0  0  0
    8.7721    5.3795   -3.0831 C   0  0  0  0  0  0  0  0  0  0  0  0
    8.8314    8.0382   -1.6676 O   0  0  0  0  0  0  0  0  0  0  0  0
    6.4941    1.4018    1.2591 H   0  0  0  0  0  0  0  0  0  0  0  0
    2.3456    3.4804    1.4743 H   0  0  0  0  0  0  0  0  0  0  0  0
    6.2574    3.5398   -1.5201 H   0  0  0  0  0  0  0  0  0  0  0  0
    7.6834    3.8227    0.2321 H   0  0  0  0  0  0  0  0  0  0  0  0
    6.2666    5.5169    2.8511 H   0  0  0  0  0  0  0  0  0  0  0  0
    4.1314    4.9066    3.3991 H   0  0  0  0  0  0  0  0  0  0  0  0
    3.1151    0.1102    0.6342 H   0  0  0  0  0  0  0  0  0  0  0  0
    4.7867    0.2921   -0.9050 H   0  0  0  0  0  0  0  0  0  0  0  0
    4.7531    0.0000    3.4416 H   0  0  0  0  0  0  0  0  0  0  0  0
    3.2933    1.7454    3.5169 H   0  0  0  0  0  0  0  0  0  0  0  0
    5.4641    2.0384    4.1750 H   0  0  0  0  0  0  0  0  0  0  0  0
    3.6170    2.7800   -2.1266 H   0  0  0  0  0  0  0  0  0  0  0  0
    1.6659    2.1003   -1.1447 H   0  0  0  0  0  0  0  0  0  0  0  0
    3.7685    7.6761    2.0024 H   0  0  0  0  0  0  0  0  0  0  0  0
    0.7750    7.6313    0.6965 H   0  0  0  0  0  0  0  0  0  0  0  0
    0.9941    6.0053    2.2734 H   0  0  0  0  0  0  0  0  0  0  0  0
    0.0000    5.5220    0.2746 H   0  0  0  0  0  0  0  0  0  0  0  0
    2.5498    7.6242   -1.9787 H   0  0  0  0  0  0  0  0  0  0  0  0
    1.6643    5.5782   -2.4353 H   0  0  0  0  0  0  0  0  0  0  0  0
    3.9086    5.8604   -2.4859 H   0  0  0  0  0  0  0  0  0  0  0  0
    4.2977    9.6458   -0.3857 H   0  0  0  0  0  0  0  0  0  0  0  0
    6.2494    9.5417   -1.4877 H   0  0  0  0  0  0  0  0  0  0  0  0
    6.2477    9.8234    0.7979 H   0  0  0  0  0  0  0  0  0  0  0  0
    9.6895    5.9882   -3.9724 H   0  0  0  0  0  0  0  0  0  0  0  0
    7.7064    4.8682   -3.8607 H   0  0  0  0  0  0  0  0  0  0  0  0
    9.4430    4.3158   -2.4349 H   0  0  0  0  0  0  0  0  0  0  0  0
  1  2  1  0  0  0  0
  1  3  1  0  0  0  0
  1  4  1  6  0  0  0
  1  5  1  1  0  0  0
  2  6  1  6  0  0  0
  2  7  1  1  0  0  0
  2 19  1  0  0  0  0
  3  8  1  6  0  0  0
  3  9  1  0  0  0  0
  3 20  1  1  0  0  0
  4 10  1  0  0  0  0
  4 21  1  6  0  0  0
  4 22  1  0  0  0  0
  5 11  1  6  0  0  0
  5 23  1  0  0  0  0
  5 24  1  1  0  0  0
  6  8  1  6  0  0  0
  6 25  1  0  0  0  0
  6 26  1  6  0  0  0
  7 27  1  0  0  0  0
  7 28  1  0  0  0  0
  7 29  1  1  0  0  0
  8 30  1  6  0  0  0
  8 31  1  0  0  0  0
  9 11  1  1  0  0  0
  9 12  1  0  0  0  0
  9 13  1  6  0  0  0
 10 14  2  0  0  0  0
 10 15  1  6  0  0  0
 11 14  1  6  0  0  0
 11 32  1  1  0  0  0
 12 33  1  0  0  0  0
 12 34  1  1  0  0  0
 12 35  1  0  0  0  0
 13 36  1  0  0  0  0
 13 37  1  6  0  0  0
 13 38  1  6  0  0  0
 14 16  1  0  0  0  0
 15 17  1  6  0  0  0
 15 18  2  0  0  0  0
 16 39  1  0  0  0  0
 16 40  1  6  0  0  0
 16 41  1  1  0  0  0
 17 42  1  6  0  0  0
 17 43  1  6  0  0  0
 17 44  1  1  0  0  0
M  END
>  <Formula> (46)
C17H26O

>  <Name> (46)
(3R-(3ALPHA,3ABETA,7BETA,8AALPHA))-1-(2,3,4,7,8,8A-HEXAHYDRO-3,6,- 8,8-TETRAMETHYL-1H-3A,7-METHANOAZULEN-5-YL)ETHAN-1-ONE

>  <CAS-Nr> (46)
80449-58-7

>  <EINECS> (46)
251-020-3

>  <LD50-rat-oral> (46)
5200

>  <Compound classification> (46)
Sesquiterpene

>  <Microorganism> (46)
Corynebacterium sp.

>  <Publication strain name> (46)
diphtheroid

>  <Microorganism classification> (46)
Bac+

>  <Inhibition zone> (46)
0

>  <ADT evaluation> (46)
1

>  <Method abbreviation> (46)
ADT

>  <Ref-Nr> (46)
351

>  <Marker> (46)
0

>  <Method> (46)
Serial dilution test; Inoculum size: 300000 viable organisms; Medium: Tryptone-yeast-glucose broth; pH: 7.0; Incubation-temperature: 37 degrees Centigrade; Incubation-time: 18-24h; Solubility enhancer: ethanol; Agar diffusion test; Medium: Tryptone-yeast-glucose agar, pH = 5.5; Compound application: 20 microliter of 10% ethanolic stock solution on 9.5 mm disk, Incubation-temperature: 37 degrees Centigrade; Incubation-time: 18-24h

>  <Reference> (46)
Morris, J.A., Khettry, A., Seitz, E.W.: Antimicrobial Activity of Aroma Chemicals and Essential Oils; Journal of the American Oil Chemists Society 56, 595-603 (1979)

>  <mol_id> (46)
1088

>  <MolWeight> (46)
246.39

>  <Nickname> (46)
Acetylcedren

>  <other Names> (46)
Vertofix coeur

$$$$

csChmFindW11180110282D

 44 46  0  0  0  0  0  0  0  0999 V2000
    5.0432    3.7756    0.9916 C   0  0  0  0  0  0  0  0  0  0  0  0
    5.1590    1.8635    1.4075 C   0  0  0  0  0  0  0  0  0  0  0  0
    3.1826    3.8846    0.3958 C   0  0  0  0  0  0  0  0  0  0  0  0
    6.4421    4.2456   -0.3111 C   0  0  0  0  0  0  0  0  0  0  0  0
    4.9969    5.1984    2.3173 C   0  0  0  0  0  0  0  0  0  0  0  0
    4.0138    1.0243    0.0309 C   0  0  0  0  0  0  0  0  0  0  0  0
    4.6315    1.3947    3.2281 C   0  0  0  0  0  0  0  0  0  0  0  0
    3.0145    2.4478   -0.8919 C   0  0  0  0  0  0  0  0  0  0  0  0
    2.7885    5.7744    0.1103 C   0  0  0  0  0  0  0  0  0  0  0  0
    6.6909    6.1193   -0.6721 C   0  0  0  0  0  0  0  0  0  0  0  0
    4.2295    6.6173    1.1823 C   0  0  0  0  0  0  0  0  0  0  0  0
    1.0480    6.2547    0.8814 C   0  0  0  0  0  0  0  0  0  0  0  0
    2.7386    6.2352   -1.7902 C   0  0  0  0  0  0  0  0  0  0  0  0
    5.6194    7.2653    0.0243 C   0  0  0  0  0  0  0  0  0  0  0  0
    8.1212    6.6586   -1.7925 C   0  0  0  0  0  0  0  0  0  0  0  0
    5.6220    9.1589   -0.2835 C   0  0  0  0  0  0  0  0  0  0  0  0
    8.7721    5.3795   -3.0831 C   0  0  0  0  0  0  0  0  0  0  0  0
    8.8314    8.0382   -1.6676 O   0  0  0  0  0  0  0  0  0  0  0  0
    6.4941    1.4018    1.2591 H   0  0  0  0  0  0  0  0  0  0  0  0
    2.3456    3.4804    1.4743 H   0  0  0  0  0  0  0  0  0  0  0  0
    6.2574    3.5398   -1.5201 H   0  0  0  0  0  0  0  0  0  0  0  0
    7.6834    3.8227    0.2321 H   0  0  0  0  0  0  0  0  0  0  0  0
    6.2666    5.5169    2.8511 H   0  0  0  0  0  0  0  0  0  0  0  0
    4.1314    4.9066    3.3991 H   0  0  0  0  0  0  0  0  0  0  0  0
    3.1151    0.1102    0.6342 H   0  0  0  0  0  0  0  0  0  0  0  0
    4.7867    0.2921   -0.9050 H   0  0  0  0  0  0  0  0  0  0  0  0
    4.7531    0.0000    3.4416 H   0  0  0  0  0  0  0  0  0  0  0  0
    3.2933    1.7454    3.5169 H   0  0  0  0  0  0  0  0  0  0  0  0
    5.4641    2.0384    4.1750 H   0  0  0  0  0  0  0  0  0  0  0  0
    3.6170    2.7800   -2.1266 H   0  0  0  0  0  0  0  0  0  0  0  0
    1.6659    2.1003   -1.1447 H   0  0  0  0  0  0  0  0  0  0  0  0
    3.7685    7.6761    2.0024 H   0  0  0  0  0  0  0  0  0  0  0  0
    0.7750    7.6313    0.6965 H   0  0  0  0  0  0  0  0  0  0  0  0
    0.9941    6.0053    2.2734 H   0  0  0  0  0  0  0  0  0  0  0  0
    0.0000    5.5220    0.2746 H   0  0  0  0  0  0  0  0  0  0  0  0
    2.5498    7.6242   -1.9787 H   0  0  0  0  0  0  0  0  0  0  0  0
    1.6643    5.5782   -2.4353 H   0  0  0  0  0  0  0  0  0  0  0  0
    3.9086    5.8604   -2.4859 H   0  0  0  0  0  0  0  0  0  0  0  0
    4.2977    9.6458   -0.3857 H   0  0  0  0  0  0  0  0  0  0  0  0
    6.2494    9.5417   -1.4877 H   0  0  0  0  0  0  0  0  0  0  0  0
    6.2477    9.8234    0.7979 H   0  0  0  0  0  0  0  0  0  0  0  0
    9.6895    5.9882   -3.9724 H   0  0  0  0  0  0  0  0  0  0  0  0
    7.7064    4.8682   -3.8607 H   0  0  0  0  0  0  0  0  0  0  0  0
    9.4430    4.3158   -2.4349 H   0  0  0  0  0  0  0  0  0  0  0  0
  1  2  1  0  0  0  0
  1  3  1  0  0  0  0
  1  4  1  6  0  0  0
  1  5  1  1  0  0  0
  2  6  1  6  0  0  0
  2  7  1  1  0  0  0
  2 19  1  0  0  0  0
  3  8  1  6  0  0  0
  3  9  1  0  0  0  0
  3 20  1  1  0  0  0
  4 10  1  0  0  0  0
  4 21  1  6  0  0  0
  4 22  1  0  0  0  0
  5 11  1  6  0  0  0
  5 23  1  0  0  0  0
  5 24  1  1  0  0  0
  6  8  1  6  0  0  0
  6 25  1  0  0  0  0
  6 26  1  6  0  0  0
  7 27  1  0  0  0  0
  7 28  1  0  0  0  0
  7 29  1  1  0  0  0
  8 30  1  6  0  0  0
  8 31  1  0  0  0  0
  9 11  1  1  0  0  0
  9 12  1  0  0  0  0
  9 13  1  6  0  0  0
 10 14  2  0  0  0  0
 10 15  1  6  0  0  0
 11 14  1  6  0  0  0
 11 32  1  1  0  0  0
 12 33  1  0  0  0  0
 12 34  1  1  0  0  0
 12 35  1  0  0  0  0
 13 36  1  0  0  0  0
 13 37  1  6  0  0  0
 13 38  1  6  0  0  0
 14 16  1  0  0  0  0
 15 17  1  6  0  0  0
 15 18  2  0  0  0  0
 16 39  1  0  0  0  0
 16 40  1  6  0  0  0
 16 41  1  1  0  0  0
 17 42  1  6  0  0  0
 17 43  1  6  0  0  0
 17 44  1  1  0  0  0
M  END
>  <Formula> (47)
C17H26O

>  <Name> (47)
(3R-(3ALPHA,3ABETA,7BETA,8AALPHA))-1-(2,3,4,7,8,8A-HEXAHYDRO-3,6,- 8,8-TETRAMETHYL-1H-3A,7-METHANOAZULEN-5-YL)ETHAN-1-ONE

>  <CAS-Nr> (47)
80449-58-7

>  <EINECS> (47)
251-020-3

>  <LD50-rat-oral> (47)
5200

>  <Compound classification> (47)
Sesquiterpene

>  <Microorganism> (47)
Staphylococcus aureus

>  <Microorganism classification> (47)
Bac+

>  <Inhibition zone> (47)
0

>  <ADT evaluation> (47)
1

>  <Method abbreviation> (47)
ADT

>  <Ref-Nr> (47)
351

>  <Marker> (47)
0

>  <Method> (47)
Serial dilution test; Inoculum size: 300000 viable organisms; Medium: Tryptone-yeast-glucose broth; pH: 7.0; Incubation-temperature: 37 degrees Centigrade; Incubation-time: 18-24h; Solubility enhancer: ethanol; Agar diffusion test; Medium: Tryptone-yeast-glucose agar, pH = 5.5; Compound application: 20 microliter of 10% ethanolic stock solution on 9.5 mm disk, Incubation-temperature: 37 degrees Centigrade; Incubation-time: 18-24h

>  <Reference> (47)
Morris, J.A., Khettry, A., Seitz, E.W.: Antimicrobial Activity of Aroma Chemicals and Essential Oils; Journal of the American Oil Chemists Society 56, 595-603 (1979)

>  <mol_id> (47)
1088

>  <MolWeight> (47)
246.39

>  <Nickname> (47)
Acetylcedren

>  <other Names> (47)
Vertofix coeur

$$$$

csChmFindW11180110282D

 44 46  0  0  0  0  0  0  0  0999 V2000
    5.0432    3.7756    0.9916 C   0  0  0  0  0  0  0  0  0  0  0  0
    5.1590    1.8635    1.4075 C   0  0  0  0  0  0  0  0  0  0  0  0
    3.1826    3.8846    0.3958 C   0  0  0  0  0  0  0  0  0  0  0  0
    6.4421    4.2456   -0.3111 C   0  0  0  0  0  0  0  0  0  0  0  0
    4.9969    5.1984    2.3173 C   0  0  0  0  0  0  0  0  0  0  0  0
    4.0138    1.0243    0.0309 C   0  0  0  0  0  0  0  0  0  0  0  0
    4.6315    1.3947    3.2281 C   0  0  0  0  0  0  0  0  0  0  0  0
    3.0145    2.4478   -0.8919 C   0  0  0  0  0  0  0  0  0  0  0  0
    2.7885    5.7744    0.1103 C   0  0  0  0  0  0  0  0  0  0  0  0
    6.6909    6.1193   -0.6721 C   0  0  0  0  0  0  0  0  0  0  0  0
    4.2295    6.6173    1.1823 C   0  0  0  0  0  0  0  0  0  0  0  0
    1.0480    6.2547    0.8814 C   0  0  0  0  0  0  0  0  0  0  0  0
    2.7386    6.2352   -1.7902 C   0  0  0  0  0  0  0  0  0  0  0  0
    5.6194    7.2653    0.0243 C   0  0  0  0  0  0  0  0  0  0  0  0
    8.1212    6.6586   -1.7925 C   0  0  0  0  0  0  0  0  0  0  0  0
    5.6220    9.1589   -0.2835 C   0  0  0  0  0  0  0  0  0  0  0  0
    8.7721    5.3795   -3.0831 C   0  0  0  0  0  0  0  0  0  0  0  0
    8.8314    8.0382   -1.6676 O   0  0  0  0  0  0  0  0  0  0  0  0
    6.4941    1.4018    1.2591 H   0  0  0  0  0  0  0  0  0  0  0  0
    2.3456    3.4804    1.4743 H   0  0  0  0  0  0  0  0  0  0  0  0
    6.2574    3.5398   -1.5201 H   0  0  0  0  0  0  0  0  0  0  0  0
    7.6834    3.8227    0.2321 H   0  0  0  0  0  0  0  0  0  0  0  0
    6.2666    5.5169    2.8511 H   0  0  0  0  0  0  0  0  0  0  0  0
    4.1314    4.9066    3.3991 H   0  0  0  0  0  0  0  0  0  0  0  0
    3.1151    0.1102    0.6342 H   0  0  0  0  0  0  0  0  0  0  0  0
    4.7867    0.2921   -0.9050 H   0  0  0  0  0  0  0  0  0  0  0  0
    4.7531    0.0000    3.4416 H   0  0  0  0  0  0  0  0  0  0  0  0
    3.2933    1.7454    3.5169 H   0  0  0  0  0  0  0  0  0  0  0  0
    5.4641    2.0384    4.1750 H   0  0  0  0  0  0  0  0  0  0  0  0
    3.6170    2.7800   -2.1266 H   0  0  0  0  0  0  0  0  0  0  0  0
    1.6659    2.1003   -1.1447 H   0  0  0  0  0  0  0  0  0  0  0  0
    3.7685    7.6761    2.0024 H   0  0  0  0  0  0  0  0  0  0  0  0
    0.7750    7.6313    0.6965 H   0  0  0  0  0  0  0  0  0  0  0  0
    0.9941    6.0053    2.2734 H   0  0  0  0  0  0  0  0  0  0  0  0
    0.0000    5.5220    0.2746 H   0  0  0  0  0  0  0  0  0  0  0  0
    2.5498    7.6242   -1.9787 H   0  0  0  0  0  0  0  0  0  0  0  0
    1.6643    5.5782   -2.4353 H   0  0  0  0  0  0  0  0  0  0  0  0
    3.9086    5.8604   -2.4859 H   0  0  0  0  0  0  0  0  0  0  0  0
    4.2977    9.6458   -0.3857 H   0  0  0  0  0  0  0  0  0  0  0  0
    6.2494    9.5417   -1.4877 H   0  0  0  0  0  0  0  0  0  0  0  0
    6.2477    9.8234    0.7979 H   0  0  0  0  0  0  0  0  0  0  0  0
    9.6895    5.9882   -3.9724 H   0  0  0  0  0  0  0  0  0  0  0  0
    7.7064    4.8682   -3.8607 H   0  0  0  0  0  0  0  0  0  0  0  0
    9.4430    4.3158   -2.4349 H   0  0  0  0  0  0  0  0  0  0  0  0
  1  2  1  0  0  0  0
  1  3  1  0  0  0  0
  1  4  1  6  0  0  0
  1  5  1  1  0  0  0
  2  6  1  6  0  0  0
  2  7  1  1  0  0  0
  2 19  1  0  0  0  0
  3  8  1  6  0  0  0
  3  9  1  0  0  0  0
  3 20  1  1  0  0  0
  4 10  1  0  0  0  0
  4 21  1  6  0  0  0
  4 22  1  0  0  0  0
  5 11  1  6  0  0  0
  5 23  1  0  0  0  0
  5 24  1  1  0  0  0
  6  8  1  6  0  0  0
  6 25  1  0  0  0  0
  6 26  1  6  0  0  0
  7 27  1  0  0  0  0
  7 28  1  0  0  0  0
  7 29  1  1  0  0  0
  8 30  1  6  0  0  0
  8 31  1  0  0  0  0
  9 11  1  1  0  0  0
  9 12  1  0  0  0  0
  9 13  1  6  0  0  0
 10 14  2  0  0  0  0
 10 15  1  6  0  0  0
 11 14  1  6  0  0  0
 11 32  1  1  0  0  0
 12 33  1  0  0  0  0
 12 34  1  1  0  0  0
 12 35  1  0  0  0  0
 13 36  1  0  0  0  0
 13 37  1  6  0  0  0
 13 38  1  6  0  0  0
 14 16  1  0  0  0  0
 15 17  1  6  0  0  0
 15 18  2  0  0  0  0
 16 39  1  0  0  0  0
 16 40  1  6  0  0  0
 16 41  1  1  0  0  0
 17 42  1  6  0  0  0
 17 43  1  6  0  0  0
 17 44  1  1  0  0  0
M  END
>  <Formula> (48)
C17H26O

>  <Name> (48)
(3R-(3ALPHA,3ABETA,7BETA,8AALPHA))-1-(2,3,4,7,8,8A-HEXAHYDRO-3,6,- 8,8-TETRAMETHYL-1H-3A,7-METHANOAZULEN-5-YL)ETHAN-1-ONE

>  <CAS-Nr> (48)
80449-58-7

>  <EINECS> (48)
251-020-3

>  <LD50-rat-oral> (48)
5200

>  <Compound classification> (48)
Sesquiterpene

>  <Microorganism> (48)
Eschericia coli

>  <Microorganism classification> (48)
Bac-

>  <Inhibition zone> (48)
0

>  <ADT evaluation> (48)
1

>  <Method abbreviation> (48)
ADT

>  <Ref-Nr> (48)
351

>  <Marker> (48)
0

>  <Method> (48)
Serial dilution test; Inoculum size: 300000 viable organisms; Medium: Tryptone-yeast-glucose broth; pH: 7.0; Incubation-temperature: 37 degrees Centigrade; Incubation-time: 18-24h; Solubility enhancer: ethanol; Agar diffusion test; Medium: Tryptone-yeast-glucose agar, pH = 5.5; Compound application: 20 microliter of 10% ethanolic stock solution on 9.5 mm disk, Incubation-temperature: 37 degrees Centigrade; Incubation-time: 18-24h

>  <Reference> (48)
Morris, J.A., Khettry, A., Seitz, E.W.: Antimicrobial Activity of Aroma Chemicals and Essential Oils; Journal of the American Oil Chemists Society 56, 595-603 (1979)

>  <mol_id> (48)
1088

>  <MolWeight> (48)
246.39

>  <Nickname> (48)
Acetylcedren

>  <other Names> (48)
Vertofix coeur

$$$$

csChmFindW11180110282D

 44 46  0  0  0  0  0  0  0  0999 V2000
    5.0432    3.7756    0.9916 C   0  0  0  0  0  0  0  0  0  0  0  0
    5.1590    1.8635    1.4075 C   0  0  0  0  0  0  0  0  0  0  0  0
    3.1826    3.8846    0.3958 C   0  0  0  0  0  0  0  0  0  0  0  0
    6.4421    4.2456   -0.3111 C   0  0  0  0  0  0  0  0  0  0  0  0
    4.9969    5.1984    2.3173 C   0  0  0  0  0  0  0  0  0  0  0  0
    4.0138    1.0243    0.0309 C   0  0  0  0  0  0  0  0  0  0  0  0
    4.6315    1.3947    3.2281 C   0  0  0  0  0  0  0  0  0  0  0  0
    3.0145    2.4478   -0.8919 C   0  0  0  0  0  0  0  0  0  0  0  0
    2.7885    5.7744    0.1103 C   0  0  0  0  0  0  0  0  0  0  0  0
    6.6909    6.1193   -0.6721 C   0  0  0  0  0  0  0  0  0  0  0  0
    4.2295    6.6173    1.1823 C   0  0  0  0  0  0  0  0  0  0  0  0
    1.0480    6.2547    0.8814 C   0  0  0  0  0  0  0  0  0  0  0  0
    2.7386    6.2352   -1.7902 C   0  0  0  0  0  0  0  0  0  0  0  0
    5.6194    7.2653    0.0243 C   0  0  0  0  0  0  0  0  0  0  0  0
    8.1212    6.6586   -1.7925 C   0  0  0  0  0  0  0  0  0  0  0  0
    5.6220    9.1589   -0.2835 C   0  0  0  0  0  0  0  0  0  0  0  0
    8.7721    5.3795   -3.0831 C   0  0  0  0  0  0  0  0  0  0  0  0
    8.8314    8.0382   -1.6676 O   0  0  0  0  0  0  0  0  0  0  0  0
    6.4941    1.4018    1.2591 H   0  0  0  0  0  0  0  0  0  0  0  0
    2.3456    3.4804    1.4743 H   0  0  0  0  0  0  0  0  0  0  0  0
    6.2574    3.5398   -1.5201 H   0  0  0  0  0  0  0  0  0  0  0  0
    7.6834    3.8227    0.2321 H   0  0  0  0  0  0  0  0  0  0  0  0
    6.2666    5.5169    2.8511 H   0  0  0  0  0  0  0  0  0  0  0  0
    4.1314    4.9066    3.3991 H   0  0  0  0  0  0  0  0  0  0  0  0
    3.1151    0.1102    0.6342 H   0  0  0  0  0  0  0  0  0  0  0  0
    4.7867    0.2921   -0.9050 H   0  0  0  0  0  0  0  0  0  0  0  0
    4.7531    0.0000    3.4416 H   0  0  0  0  0  0  0  0  0  0  0  0
    3.2933    1.7454    3.5169 H   0  0  0  0  0  0  0  0  0  0  0  0
    5.4641    2.0384    4.1750 H   0  0  0  0  0  0  0  0  0  0  0  0
    3.6170    2.7800   -2.1266 H   0  0  0  0  0  0  0  0  0  0  0  0
    1.6659    2.1003   -1.1447 H   0  0  0  0  0  0  0  0  0  0  0  0
    3.7685    7.6761    2.0024 H   0  0  0  0  0  0  0  0  0  0  0  0
    0.7750    7.6313    0.6965 H   0  0  0  0  0  0  0  0  0  0  0  0
    0.9941    6.0053    2.2734 H   0  0  0  0  0  0  0  0  0  0  0  0
    0.0000    5.5220    0.2746 H   0  0  0  0  0  0  0  0  0  0  0  0
    2.5498    7.6242   -1.9787 H   0  0  0  0  0  0  0  0  0  0  0  0
    1.6643    5.5782   -2.4353 H   0  0  0  0  0  0  0  0  0  0  0  0
    3.9086    5.8604   -2.4859 H   0  0  0  0  0  0  0  0  0  0  0  0
    4.2977    9.6458   -0.3857 H   0  0  0  0  0  0  0  0  0  0  0  0
    6.2494    9.5417   -1.4877 H   0  0  0  0  0  0  0  0  0  0  0  0
    6.2477    9.8234    0.7979 H   0  0  0  0  0  0  0  0  0  0  0  0
    9.6895    5.9882   -3.9724 H   0  0  0  0  0  0  0  0  0  0  0  0
    7.7064    4.8682   -3.8607 H   0  0  0  0  0  0  0  0  0  0  0  0
    9.4430    4.3158   -2.4349 H   0  0  0  0  0  0  0  0  0  0  0  0
  1  2  1  0  0  0  0
  1  3  1  0  0  0  0
  1  4  1  6  0  0  0
  1  5  1  1  0  0  0
  2  6  1  6  0  0  0
  2  7  1  1  0  0  0
  2 19  1  0  0  0  0
  3  8  1  6  0  0  0
  3  9  1  0  0  0  0
  3 20  1  1  0  0  0
  4 10  1  0  0  0  0
  4 21  1  6  0  0  0
  4 22  1  0  0  0  0
  5 11  1  6  0  0  0
  5 23  1  0  0  0  0
  5 24  1  1  0  0  0
  6  8  1  6  0  0  0
  6 25  1  0  0  0  0
  6 26  1  6  0  0  0
  7 27  1  0  0  0  0
  7 28  1  0  0  0  0
  7 29  1  1  0  0  0
  8 30  1  6  0  0  0
  8 31  1  0  0  0  0
  9 11  1  1  0  0  0
  9 12  1  0  0  0  0
  9 13  1  6  0  0  0
 10 14  2  0  0  0  0
 10 15  1  6  0  0  0
 11 14  1  6  0  0  0
 11 32  1  1  0  0  0
 12 33  1  0  0  0  0
 12 34  1  1  0  0  0
 12 35  1  0  0  0  0
 13 36  1  0  0  0  0
 13 37  1  6  0  0  0
 13 38  1  6  0  0  0
 14 16  1  0  0  0  0
 15 17  1  6  0  0  0
 15 18  2  0  0  0  0
 16 39  1  0  0  0  0
 16 40  1  6  0  0  0
 16 41  1  1  0  0  0
 17 42  1  6  0  0  0
 17 43  1  6  0  0  0
 17 44  1  1  0  0  0
M  END
>  <Formula> (49)
C17H26O

>  <Name> (49)
(3R-(3ALPHA,3ABETA,7BETA,8AALPHA))-1-(2,3,4,7,8,8A-HEXAHYDRO-3,6,- 8,8-TETRAMETHYL-1H-3A,7-METHANOAZULEN-5-YL)ETHAN-1-ONE

>  <CAS-Nr> (49)
80449-58-7

>  <EINECS> (49)
251-020-3

>  <LD50-rat-oral> (49)
5200

>  <Compound classification> (49)
Sesquiterpene

>  <Microorganism> (49)
Candida albicans

>  <Microorganism classification> (49)
yeast

>  <Inhibition zone> (49)
0

>  <ADT evaluation> (49)
1

>  <Method abbreviation> (49)
ADT

>  <Ref-Nr> (49)
351

>  <Marker> (49)
0

>  <Method> (49)
Serial dilution test; Inoculum size: 300000 viable organisms; Medium: Tryptone-yeast-glucose broth; pH: 7.0; Incubation-temperature: 37 degrees Centigrade; Incubation-time: 18-24h; Solubility enhancer: ethanol; Agar diffusion test; Medium: Tryptone-yeast-glucose agar, pH = 5.5; Compound application: 20 microliter of 10% ethanolic stock solution on 9.5 mm disk, Incubation-temperature: 37 degrees Centigrade; Incubation-time: 18-24h

>  <Reference> (49)
Morris, J.A., Khettry, A., Seitz, E.W.: Antimicrobial Activity of Aroma Chemicals and Essential Oils; Journal of the American Oil Chemists Society 56, 595-603 (1979)

>  <mol_id> (49)
1088

>  <MolWeight> (49)
246.39

>  <Nickname> (49)
Acetylcedren

>  <other Names> (49)
Vertofix coeur

$$$$

csChmFindW11180110282D

 23 24  0  0  0  0  0  0  0  0999 V2000
    2.4905    4.7705    0.4650 C   0  0  0  0  0  0  0  0  0  0  0  0
    4.1146    4.1972   -0.5443 C   0  0  0  0  0  0  0  0  0  0  0  0
    2.5561    3.3720    1.9218 C   0  0  0  0  0  0  0  0  0  0  0  0
    0.9918    4.0172   -0.5516 C   0  0  0  0  0  0  0  0  0  0  0  0
    2.3873    6.6126    0.9254 C   0  0  0  0  0  0  0  0  0  0  0  0
    4.1313    2.1643   -0.4557 C   0  0  0  0  0  0  0  0  0  0  0  0
    5.1679    5.0892   -1.2663 O   0  0  0  0  0  0  0  0  0  0  0  0
    0.8807    2.2747   -0.4067 C   0  0  0  0  0  0  0  0  0  0  0  0
    2.4786    1.9686    0.5167 C   0  0  0  0  0  0  0  0  0  0  0  0
    5.7120    1.5459    0.4752 C   0  0  0  0  0  0  0  0  0  0  0  0
    4.0865    1.4286   -2.2483 C   0  0  0  0  0  0  0  0  0  0  0  0
    1.4130    3.3995    2.7676 H   0  0  0  0  0  0  0  0  0  0  0  0
    3.7397    3.3918    2.7046 H   0  0  0  0  0  0  0  0  0  0  0  0
    1.2715    6.8448    1.7906 H   0  0  0  0  0  0  0  0  0  0  0  0
    2.2203    7.4039   -0.2569 H   0  0  0  0  0  0  0  0  0  0  0  0
    3.5832    7.0308    1.5913 H   0  0  0  0  0  0  0  0  0  0  0  0
    0.0000    1.3610   -0.9655 H   0  0  0  0  0  0  0  0  0  0  0  0
    5.7233    0.1156    0.5120 H   0  0  0  0  0  0  0  0  0  0  0  0
    5.7654    2.0341    1.8168 H   0  0  0  0  0  0  0  0  0  0  0  0
    6.8803    1.9978   -0.2184 H   0  0  0  0  0  0  0  0  0  0  0  0
    4.1185    0.0000   -2.1937 H   0  0  0  0  0  0  0  0  0  0  0  0
    5.2231    1.8900   -2.9854 H   0  0  0  0  0  0  0  0  0  0  0  0
    2.8979    1.8344   -2.9343 H   0  0  0  0  0  0  0  0  0  0  0  0
  1  2  1  6  0  0  0
  1  3  1  1  0  0  0
  1  4  1  6  0  0  0
  1  5  1  0  0  0  0
  2  6  1  0  0  0  0
  2  7  2  0  0  0  0
  3  9  1  6  0  0  0
  3 12  1  1  0  0  0
  3 13  1  1  0  0  0
  4  8  1  0  0  0  0
  5 14  1  1  0  0  0
  5 15  1  6  0  0  0
  5 16  1  1  0  0  0
  6  9  1  1  0  0  0
  6 10  1  1  0  0  0
  6 11  1  6  0  0  0
  8  9  1  1  0  0  0
  8 17  1  0  0  0  0
 10 18  1  0  0  0  0
 10 19  1  1  0  0  0
 10 20  1  6  0  0  0
 11 21  1  0  0  0  0
 11 22  1  6  0  0  0
 11 23  1  6  0  0  0
M  END
>  <Formula> (50)
C10H16O

>  <Name> (50)
1,3,3-TRIMETHYL-BICYCLO[2.2.1]HEPTAN-2-ONE

>  <CAS-Nr> (50)
1195-79-5

>  <EINECS> (50)
214-804-6

>  <21 CFR> (50)
172.515 (d-Fenchone)

>  <LD50-rat-oral> (50)
6160

>  <Compound classification> (50)
Monoterpene

>  <Microorganism> (50)
Candida albicans

>  <Microorganism classification> (50)
yeast

>  <MIC> (50)
4000

>  <Method abbreviation> (50)
ADlT

>  <Ref-Nr> (50)
409

>  <Marker> (50)
0

>  <Method> (50)
Agar dilution test; Inoculum size: loopful; Medium: meat extract + peptone agar - pH: 7.4 (bacteria), Gruetz-III agar - pH= 6.0 (fungi) (consists of Mycopeptone A, malt); Incubation-temperature: 37 (bacteria) 24 (fungi) degrees Centigrade; Incubation-time: 24h (bateria), 21d (fungi); Solubility enhancer: acetone, Tween, glycol [method cited: Weuffen at al.: Pharmazie 18, 420-6 (1963)]

>  <Reference> (50)
Goeckeritz, D., Weuffen, W., Hoeppe, H.: Terpene und Terpenderivate vom Carvon- und Camphertyp - ihre antimikrobiellen und verminoxischen Eigenschaften; Pharmazie 29, 339-44 (1974)

>  <mol_id> (50)
211

>  <MolWeight> (50)
152.23

>  <Nickname> (50)
Fenchone

$$$$

csChmFindW11180110282D

 23 24  0  0  0  0  0  0  0  0999 V2000
    2.4905    4.7705    0.4650 C   0  0  0  0  0  0  0  0  0  0  0  0
    4.1146    4.1972   -0.5443 C   0  0  0  0  0  0  0  0  0  0  0  0
    2.5561    3.3720    1.9218 C   0  0  0  0  0  0  0  0  0  0  0  0
    0.9918    4.0172   -0.5516 C   0  0  0  0  0  0  0  0  0  0  0  0
    2.3873    6.6126    0.9254 C   0  0  0  0  0  0  0  0  0  0  0  0
    4.1313    2.1643   -0.4557 C   0  0  0  0  0  0  0  0  0  0  0  0
    5.1679    5.0892   -1.2663 O   0  0  0  0  0  0  0  0  0  0  0  0
    0.8807    2.2747   -0.4067 C   0  0  0  0  0  0  0  0  0  0  0  0
    2.4786    1.9686    0.5167 C   0  0  0  0  0  0  0  0  0  0  0  0
    5.7120    1.5459    0.4752 C   0  0  0  0  0  0  0  0  0  0  0  0
    4.0865    1.4286   -2.2483 C   0  0  0  0  0  0  0  0  0  0  0  0
    1.4130    3.3995    2.7676 H   0  0  0  0  0  0  0  0  0  0  0  0
    3.7397    3.3918    2.7046 H   0  0  0  0  0  0  0  0  0  0  0  0
    1.2715    6.8448    1.7906 H   0  0  0  0  0  0  0  0  0  0  0  0
    2.2203    7.4039   -0.2569 H   0  0  0  0  0  0  0  0  0  0  0  0
    3.5832    7.0308    1.5913 H   0  0  0  0  0  0  0  0  0  0  0  0
    0.0000    1.3610   -0.9655 H   0  0  0  0  0  0  0  0  0  0  0  0
    5.7233    0.1156    0.5120 H   0  0  0  0  0  0  0  0  0  0  0  0
    5.7654    2.0341    1.8168 H   0  0  0  0  0  0  0  0  0  0  0  0
    6.8803    1.9978   -0.2184 H   0  0  0  0  0  0  0  0  0  0  0  0
    4.1185    0.0000   -2.1937 H   0  0  0  0  0  0  0  0  0  0  0  0
    5.2231    1.8900   -2.9854 H   0  0  0  0  0  0  0  0  0  0  0  0
    2.8979    1.8344   -2.9343 H   0  0  0  0  0  0  0  0  0  0  0  0
  1  2  1  6  0  0  0
  1  3  1  1  0  0  0
  1  4  1  6  0  0  0
  1  5  1  0  0  0  0
  2  6  1  0  0  0  0
  2  7  2  0  0  0  0
  3  9  1  6  0  0  0
  3 12  1  1  0  0  0
  3 13  1  1  0  0  0
  4  8  1  0  0  0  0
  5 14  1  1  0  0  0
  5 15  1  6  0  0  0
  5 16  1  1  0  0  0
  6  9  1  1  0  0  0
  6 10  1  1  0  0  0
  6 11  1  6  0  0  0
  8  9  1  1  0  0  0
  8 17  1  0  0  0  0
 10 18  1  0  0  0  0
 10 19  1  1  0  0  0
 10 20  1  6  0  0  0
 11 21  1  0  0  0  0
 11 22  1  6  0  0  0
 11 23  1  6  0  0  0
M  END
>  <Formula> (51)
C10H16O

>  <Name> (51)
1,3,3-TRIMETHYL-BICYCLO[2.2.1]HEPTAN-2-ONE

>  <CAS-Nr> (51)
1195-79-5

>  <EINECS> (51)
214-804-6

>  <21 CFR> (51)
172.515 (d-Fenchone)

>  <LD50-rat-oral> (51)
6160

>  <Compound classification> (51)
Monoterpene

>  <Microorganism> (51)
Trichosporon cutaneum

>  <Microorganism classification> (51)
yeast

>  <MIC> (51)
8000

>  <Method abbreviation> (51)
ADlT

>  <Ref-Nr> (51)
409

>  <Marker> (51)
0

>  <Method> (51)
Agar dilution test; Inoculum size: loopful; Medium: meat extract + peptone agar - pH: 7.4 (bacteria), Gruetz-III agar - pH= 6.0 (fungi) (consists of Mycopeptone A, malt); Incubation-temperature: 37 (bacteria) 24 (fungi) degrees Centigrade; Incubation-time: 24h (bateria), 21d (fungi); Solubility enhancer: acetone, Tween, glycol [method cited: Weuffen at al.: Pharmazie 18, 420-6 (1963)]

>  <Reference> (51)
Goeckeritz, D., Weuffen, W., Hoeppe, H.: Terpene und Terpenderivate vom Carvon- und Camphertyp - ihre antimikrobiellen und verminoxischen Eigenschaften; Pharmazie 29, 339-44 (1974)

>  <mol_id> (51)
211

>  <MolWeight> (51)
152.23

>  <Nickname> (51)
Fenchone

$$$$

csChmFindW11180110282D

 37 39  0  0  0  0  0  0  0  0999 V2000
    2.2030    4.4332   -0.8902 C   0  0  0  0  0  0  0  0  0  0  0  0
    2.6329    6.3741   -0.5635 C   0  0  0  0  0  0  0  0  0  0  0  0
    1.5518    6.8093    1.0081 C   0  0  0  0  0  0  0  0  0  0  0  0
    0.8659    5.1557    1.7079 C   0  0  0  0  0  0  0  0  0  0  0  0
    1.3588    3.7784    0.6682 O   0  0  0  0  0  0  0  0  0  0  0  0
    8.8937    5.4392    0.8224 C   0  0  0  0  0  0  0  0  0  0  0  0
    8.1976    3.9770    0.1504 C   0  0  0  0  0  0  0  0  0  0  0  0
    7.5504    6.8171    0.9269 C   0  0  0  0  0  0  0  0  0  0  0  0
    5.7860    5.8962    0.6506 C   0  0  0  0  0  0  0  0  0  0  0  0
    4.5034    7.0292   -0.3539 C   0  0  0  0  0  0  0  0  0  0  0  0
    6.3386    4.2612   -0.3907 C   0  0  0  0  0  0  0  0  0  0  0  0
    3.5430    3.1176   -1.4728 C   0  0  0  0  0  0  0  0  0  0  0  0
    5.0734    2.7587   -0.2697 C   0  0  0  0  0  0  0  0  0  0  0  0
    0.0000    4.7977    2.9945 O   0  0  0  0  0  0  0  0  0  0  0  0
    7.7581    8.3816    1.1597 O   0  0  0  0  0  0  0  0  0  0  0  0
    1.2072    8.3750    1.6545 C   0  0  0  0  0  0  0  0  0  0  0  0
    5.1080    7.3496   -2.0751 O   0  0  0  0  0  0  0  0  0  0  0  0
    5.1262    5.4900    2.4650 C   0  0  0  0  0  0  0  0  0  0  0  0
    5.9269    1.0609   -0.7902 C   0  0  0  0  0  0  0  0  0  0  0  0
    1.1467    4.4210   -1.9164 H   0  0  0  0  0  0  0  0  0  0  0  0
    2.1096    7.1106   -1.7219 H   0  0  0  0  0  0  0  0  0  0  0  0
   10.2254    5.6651    1.2496 H   0  0  0  0  0  0  0  0  0  0  0  0
    8.8520    2.7394   -0.0767 H   0  0  0  0  0  0  0  0  0  0  0  0
    4.4315    8.3165    0.3588 H   0  0  0  0  0  0  0  0  0  0  0  0
    6.4111    4.6556   -1.8097 H   0  0  0  0  0  0  0  0  0  0  0  0
    4.0355    3.5506   -2.7763 H   0  0  0  0  0  0  0  0  0  0  0  0
    2.8206    1.8608   -1.6662 H   0  0  0  0  0  0  0  0  0  0  0  0
    4.5754    2.6126    1.0966 H   0  0  0  0  0  0  0  0  0  0  0  0
    0.3715    8.5455    2.8013 H   0  0  0  0  0  0  0  0  0  0  0  0
    1.7358    9.5712    1.0822 H   0  0  0  0  0  0  0  0  0  0  0  0
    6.1895    7.9757   -1.9622 H   0  0  0  0  0  0  0  0  0  0  0  0
    3.8418    4.8198    2.4194 H   0  0  0  0  0  0  0  0  0  0  0  0
    4.9777    6.7212    3.2196 H   0  0  0  0  0  0  0  0  0  0  0  0
    6.0679    4.6289    3.1557 H   0  0  0  0  0  0  0  0  0  0  0  0
    4.9390    0.0000   -0.8516 H   0  0  0  0  0  0  0  0  0  0  0  0
    6.9325    0.6812    0.1833 H   0  0  0  0  0  0  0  0  0  0  0  0
    6.5580    1.1792   -2.0903 H   0  0  0  0  0  0  0  0  0  0  0  0
  1  2  1  0  0  0  0
  1  5  1  1  0  0  0
  1 12  1  0  0  0  0
  1 20  1  6  0  0  0
  2  3  1  1  0  0  0
  2 10  1  0  0  0  0
  2 21  1  6  0  0  0
  3  4  1  0  0  0  0
  3 16  2  0  0  0  0
  4  5  1  6  0  0  0
  4 14  2  0  0  0  0
  6  7  2  0  0  0  0
  6  8  1  0  0  0  0
  6 22  1  0  0  0  0
  7 11  1  0  0  0  0
  7 23  1  0  0  0  0
  8  9  1  0  0  0  0
  8 15  2  0  0  0  0
  9 10  1  6  0  0  0
  9 11  1  6  0  0  0
  9 18  1  1  0  0  0
 10 17  1  6  0  0  0
 10 24  1  1  0  0  0
 11 13  1  0  0  0  0
 11 25  1  6  0  0  0
 12 13  1  1  0  0  0
 12 26  1  6  0  0  0
 12 27  1  0  0  0  0
 13 19  1  0  0  0  0
 13 28  1  1  0  0  0
 16 29  1  1  0  0  0
 16 30  1  0  0  0  0
 17 31  1  0  0  0  0
 18 32  1  0  0  0  0
 18 33  1  1  0  0  0
 18 34  1  1  0  0  0
 19 35  1  0  0  0  0
 19 36  1  1  0  0  0
 19 37  1  6  0  0  0
M  END
>  <Formula> (52)
C15H18O4

>  <Name> (52)
4-HYDROXY-4A,8-DIMETHYL-3-METHYLENE-3,3A,4,4A,7A,8,9,9A-OCTAHYDRO-AZULENO[6,5-B]FURAN-2,5-DIONE

>  <CAS-Nr> (52)
6754-13-8

>  <LD50-rat-oral> (52)
125

>  <Compound classification> (52)
Sesquiterpene

>  <Microorganism> (52)
Candida albicans

>  <Microorganism type> (52)
ATCC 934

>  <Microorganism classification> (52)
yeast

>  <NIC> (52)
1000

>  <Method abbreviation> (52)
SDT

>  <Ref-Nr> (52)
417

>  <Marker> (52)
0

>  <Method> (52)
Serial dilution test; Inoculum size: ---; Medium: ---; pH: ---; Incubation-temperature: -- degrees Centigrade; Incubation-time: ---; Solubility enhancer: ---; method cited

>  <Reference> (52)
Lee, K.-H., Ibuka, T., Wu, R.-Y., Geissmann, T.A.: Structure-Antimicrobial Activity Relationships Among the Sesquiterpene Lactones and Related Compounds; Phytochemistry 16, 1177-81 (1977)

>  <mol_id> (52)
2889

>  <LD50-mouse-oral> (52)
150

>  <LD50-mou-ip> (52)
10

>  <MolWeight> (52)
262.30

>  <Nickname> (52)
Helenalin

>  <other Names> (52)
(3aS-(3aalpha,4alpha,4abeta,7aalpha,8alpha,9aalpha))-3,3a,4,4a,7a,8,9,9a-octahydro-4-Hydroxy-4a,8-dimethyl-3-methylene-azuleno(6,5-b)furan-2,5-dione

$$$$

csChmFindW11180110282D

 37 39  0  0  0  0  0  0  0  0999 V2000
    2.2030    4.4332   -0.8902 C   0  0  0  0  0  0  0  0  0  0  0  0
    2.6329    6.3741   -0.5635 C   0  0  0  0  0  0  0  0  0  0  0  0
    1.5518    6.8093    1.0081 C   0  0  0  0  0  0  0  0  0  0  0  0
    0.8659    5.1557    1.7079 C   0  0  0  0  0  0  0  0  0  0  0  0
    1.3588    3.7784    0.6682 O   0  0  0  0  0  0  0  0  0  0  0  0
    8.8937    5.4392    0.8224 C   0  0  0  0  0  0  0  0  0  0  0  0
    8.1976    3.9770    0.1504 C   0  0  0  0  0  0  0  0  0  0  0  0
    7.5504    6.8171    0.9269 C   0  0  0  0  0  0  0  0  0  0  0  0
    5.7860    5.8962    0.6506 C   0  0  0  0  0  0  0  0  0  0  0  0
    4.5034    7.0292   -0.3539 C   0  0  0  0  0  0  0  0  0  0  0  0
    6.3386    4.2612   -0.3907 C   0  0  0  0  0  0  0  0  0  0  0  0
    3.5430    3.1176   -1.4728 C   0  0  0  0  0  0  0  0  0  0  0  0
    5.0734    2.7587   -0.2697 C   0  0  0  0  0  0  0  0  0  0  0  0
    0.0000    4.7977    2.9945 O   0  0  0  0  0  0  0  0  0  0  0  0
    7.7581    8.3816    1.1597 O   0  0  0  0  0  0  0  0  0  0  0  0
    1.2072    8.3750    1.6545 C   0  0  0  0  0  0  0  0  0  0  0  0
    5.1080    7.3496   -2.0751 O   0  0  0  0  0  0  0  0  0  0  0  0
    5.1262    5.4900    2.4650 C   0  0  0  0  0  0  0  0  0  0  0  0
    5.9269    1.0609   -0.7902 C   0  0  0  0  0  0  0  0  0  0  0  0
    1.1467    4.4210   -1.9164 H   0  0  0  0  0  0  0  0  0  0  0  0
    2.1096    7.1106   -1.7219 H   0  0  0  0  0  0  0  0  0  0  0  0
   10.2254    5.6651    1.2496 H   0  0  0  0  0  0  0  0  0  0  0  0
    8.8520    2.7394   -0.0767 H   0  0  0  0  0  0  0  0  0  0  0  0
    4.4315    8.3165    0.3588 H   0  0  0  0  0  0  0  0  0  0  0  0
    6.4111    4.6556   -1.8097 H   0  0  0  0  0  0  0  0  0  0  0  0
    4.0355    3.5506   -2.7763 H   0  0  0  0  0  0  0  0  0  0  0  0
    2.8206    1.8608   -1.6662 H   0  0  0  0  0  0  0  0  0  0  0  0
    4.5754    2.6126    1.0966 H   0  0  0  0  0  0  0  0  0  0  0  0
    0.3715    8.5455    2.8013 H   0  0  0  0  0  0  0  0  0  0  0  0
    1.7358    9.5712    1.0822 H   0  0  0  0  0  0  0  0  0  0  0  0
    6.1895    7.9757   -1.9622 H   0  0  0  0  0  0  0  0  0  0  0  0
    3.8418    4.8198    2.4194 H   0  0  0  0  0  0  0  0  0  0  0  0
    4.9777    6.7212    3.2196 H   0  0  0  0  0  0  0  0  0  0  0  0
    6.0679    4.6289    3.1557 H   0  0  0  0  0  0  0  0  0  0  0  0
    4.9390    0.0000   -0.8516 H   0  0  0  0  0  0  0  0  0  0  0  0
    6.9325    0.6812    0.1833 H   0  0  0  0  0  0  0  0  0  0  0  0
    6.5580    1.1792   -2.0903 H   0  0  0  0  0  0  0  0  0  0  0  0
  1  2  1  0  0  0  0
  1  5  1  1  0  0  0
  1 12  1  0  0  0  0
  1 20  1  6  0  0  0
  2  3  1  1  0  0  0
  2 10  1  0  0  0  0
  2 21  1  6  0  0  0
  3  4  1  0  0  0  0
  3 16  2  0  0  0  0
  4  5  1  6  0  0  0
  4 14  2  0  0  0  0
  6  7  2  0  0  0  0
  6  8  1  0  0  0  0
  6 22  1  0  0  0  0
  7 11  1  0  0  0  0
  7 23  1  0  0  0  0
  8  9  1  0  0  0  0
  8 15  2  0  0  0  0
  9 10  1  6  0  0  0
  9 11  1  6  0  0  0
  9 18  1  1  0  0  0
 10 17  1  6  0  0  0
 10 24  1  1  0  0  0
 11 13  1  0  0  0  0
 11 25  1  6  0  0  0
 12 13  1  1  0  0  0
 12 26  1  6  0  0  0
 12 27  1  0  0  0  0
 13 19  1  0  0  0  0
 13 28  1  1  0  0  0
 16 29  1  1  0  0  0
 16 30  1  0  0  0  0
 17 31  1  0  0  0  0
 18 32  1  0  0  0  0
 18 33  1  1  0  0  0
 18 34  1  1  0  0  0
 19 35  1  0  0  0  0
 19 36  1  1  0  0  0
 19 37  1  6  0  0  0
M  END
>  <Formula> (53)
C15H18O4

>  <Name> (53)
4-HYDROXY-4A,8-DIMETHYL-3-METHYLENE-3,3A,4,4A,7A,8,9,9A-OCTAHYDRO-AZULENO[6,5-B]FURAN-2,5-DIONE

>  <CAS-Nr> (53)
6754-13-8

>  <LD50-rat-oral> (53)
125

>  <Compound classification> (53)
Sesquiterpene

>  <Microorganism> (53)
Nadsonia fulvescens

>  <Microorganism type> (53)
NCTC 2596

>  <Microorganism classification> (53)
fungi

>  <Inhibition zone> (53)
0

>  <ADT evaluation> (53)
1

>  <Method abbreviation> (53)
ADT

>  <Ref-Nr> (53)
418

>  <Marker> (53)
0

>  <Method> (53)
Agar diffusion test; Medium: malt extract or yeast/malt extract agar; Inoculum size: spore, cell or mycel suspension was given to molten agar; disk diameter: 6 mm; Incubation-temperature: --; Incubation time: 12-48h; compound dose: 0.1 mg per disk; Solubility enhancer: methanol; Serial dilution test; Inoculum size: 1x10E6 cells/ml; Medium: nutrient broth; pH: ---; Incubation-temperature: 27 or 37 degrees Centigrade; Incubation-time: 24h; Solubility enhancer: methanol, ultrasonic

>  <Reference> (53)
Willhuhn, G., P.-M. Roettger, Quack, W.: Untersuchungen zur Antimikrobiellen Aktivitaet der Sesquiterpenlactone aus Arnikablueten; Pharmazeutische Zeitung 127, 2183-5 (1982)

>  <mol_id> (53)
2889

>  <LD50-mouse-oral> (53)
150

>  <LD50-mou-ip> (53)
10

>  <MolWeight> (53)
262.30

>  <Nickname> (53)
Helenalin

>  <other Names> (53)
(3aS-(3aalpha,4alpha,4abeta,7aalpha,8alpha,9aalpha))-3,3a,4,4a,7a,8,9,9a-octahydro-4-Hydroxy-4a,8-dimethyl-3-methylene-azuleno(6,5-b)furan-2,5-dione

$$$$

csChmFindW11180110282D

 37 39  0  0  0  0  0  0  0  0999 V2000
    2.2030    4.4332   -0.8902 C   0  0  0  0  0  0  0  0  0  0  0  0
    2.6329    6.3741   -0.5635 C   0  0  0  0  0  0  0  0  0  0  0  0
    1.5518    6.8093    1.0081 C   0  0  0  0  0  0  0  0  0  0  0  0
    0.8659    5.1557    1.7079 C   0  0  0  0  0  0  0  0  0  0  0  0
    1.3588    3.7784    0.6682 O   0  0  0  0  0  0  0  0  0  0  0  0
    8.8937    5.4392    0.8224 C   0  0  0  0  0  0  0  0  0  0  0  0
    8.1976    3.9770    0.1504 C   0  0  0  0  0  0  0  0  0  0  0  0
    7.5504    6.8171    0.9269 C   0  0  0  0  0  0  0  0  0  0  0  0
    5.7860    5.8962    0.6506 C   0  0  0  0  0  0  0  0  0  0  0  0
    4.5034    7.0292   -0.3539 C   0  0  0  0  0  0  0  0  0  0  0  0
    6.3386    4.2612   -0.3907 C   0  0  0  0  0  0  0  0  0  0  0  0
    3.5430    3.1176   -1.4728 C   0  0  0  0  0  0  0  0  0  0  0  0
    5.0734    2.7587   -0.2697 C   0  0  0  0  0  0  0  0  0  0  0  0
    0.0000    4.7977    2.9945 O   0  0  0  0  0  0  0  0  0  0  0  0
    7.7581    8.3816    1.1597 O   0  0  0  0  0  0  0  0  0  0  0  0
    1.2072    8.3750    1.6545 C   0  0  0  0  0  0  0  0  0  0  0  0
    5.1080    7.3496   -2.0751 O   0  0  0  0  0  0  0  0  0  0  0  0
    5.1262    5.4900    2.4650 C   0  0  0  0  0  0  0  0  0  0  0  0
    5.9269    1.0609   -0.7902 C   0  0  0  0  0  0  0  0  0  0  0  0
    1.1467    4.4210   -1.9164 H   0  0  0  0  0  0  0  0  0  0  0  0
    2.1096    7.1106   -1.7219 H   0  0  0  0  0  0  0  0  0  0  0  0
   10.2254    5.6651    1.2496 H   0  0  0  0  0  0  0  0  0  0  0  0
    8.8520    2.7394   -0.0767 H   0  0  0  0  0  0  0  0  0  0  0  0
    4.4315    8.3165    0.3588 H   0  0  0  0  0  0  0  0  0  0  0  0
    6.4111    4.6556   -1.8097 H   0  0  0  0  0  0  0  0  0  0  0  0
    4.0355    3.5506   -2.7763 H   0  0  0  0  0  0  0  0  0  0  0  0
    2.8206    1.8608   -1.6662 H   0  0  0  0  0  0  0  0  0  0  0  0
    4.5754    2.6126    1.0966 H   0  0  0  0  0  0  0  0  0  0  0  0
    0.3715    8.5455    2.8013 H   0  0  0  0  0  0  0  0  0  0  0  0
    1.7358    9.5712    1.0822 H   0  0  0  0  0  0  0  0  0  0  0  0
    6.1895    7.9757   -1.9622 H   0  0  0  0  0  0  0  0  0  0  0  0
    3.8418    4.8198    2.4194 H   0  0  0  0  0  0  0  0  0  0  0  0
    4.9777    6.7212    3.2196 H   0  0  0  0  0  0  0  0  0  0  0  0
    6.0679    4.6289    3.1557 H   0  0  0  0  0  0  0  0  0  0  0  0
    4.9390    0.0000   -0.8516 H   0  0  0  0  0  0  0  0  0  0  0  0
    6.9325    0.6812    0.1833 H   0  0  0  0  0  0  0  0  0  0  0  0
    6.5580    1.1792   -2.0903 H   0  0  0  0  0  0  0  0  0  0  0  0
  1  2  1  0  0  0  0
  1  5  1  1  0  0  0
  1 12  1  0  0  0  0
  1 20  1  6  0  0  0
  2  3  1  1  0  0  0
  2 10  1  0  0  0  0
  2 21  1  6  0  0  0
  3  4  1  0  0  0  0
  3 16  2  0  0  0  0
  4  5  1  6  0  0  0
  4 14  2  0  0  0  0
  6  7  2  0  0  0  0
  6  8  1  0  0  0  0
  6 22  1  0  0  0  0
  7 11  1  0  0  0  0
  7 23  1  0  0  0  0
  8  9  1  0  0  0  0
  8 15  2  0  0  0  0
  9 10  1  6  0  0  0
  9 11  1  6  0  0  0
  9 18  1  1  0  0  0
 10 17  1  6  0  0  0
 10 24  1  1  0  0  0
 11 13  1  0  0  0  0
 11 25  1  6  0  0  0
 12 13  1  1  0  0  0
 12 26  1  6  0  0  0
 12 27  1  0  0  0  0
 13 19  1  0  0  0  0
 13 28  1  1  0  0  0
 16 29  1  1  0  0  0
 16 30  1  0  0  0  0
 17 31  1  0  0  0  0
 18 32  1  0  0  0  0
 18 33  1  1  0  0  0
 18 34  1  1  0  0  0
 19 35  1  0  0  0  0
 19 36  1  1  0  0  0
 19 37  1  6  0  0  0
M  END
>  <Formula> (54)
C15H18O4

>  <Name> (54)
4-HYDROXY-4A,8-DIMETHYL-3-METHYLENE-3,3A,4,4A,7A,8,9,9A-OCTAHYDRO-AZULENO[6,5-B]FURAN-2,5-DIONE

>  <CAS-Nr> (54)
6754-13-8

>  <LD50-rat-oral> (54)
125

>  <Compound classification> (54)
Sesquiterpene

>  <Microorganism> (54)
Penicillium chrysogenum

>  <Microorganism type> (54)
NCTC 196.46

>  <Microorganism classification> (54)
fungi

>  <Inhibition zone> (54)
0

>  <ADT evaluation> (54)
1

>  <Method abbreviation> (54)
ADT

>  <Ref-Nr> (54)
418

>  <Marker> (54)
0

>  <Method> (54)
Agar diffusion test; Medium: malt extract or yeast/malt extract agar; Inoculum size: spore, cell or mycel suspension was given to molten agar; disk diameter: 6 mm; Incubation-temperature: --; Incubation time: 12-48h; compound dose: 0.1 mg per disk; Solubility enhancer: methanol; Serial dilution test; Inoculum size: 1x10E6 cells/ml; Medium: nutrient broth; pH: ---; Incubation-temperature: 27 or 37 degrees Centigrade; Incubation-time: 24h; Solubility enhancer: methanol, ultrasonic

>  <Reference> (54)
Willhuhn, G., P.-M. Roettger, Quack, W.: Untersuchungen zur Antimikrobiellen Aktivitaet der Sesquiterpenlactone aus Arnikablueten; Pharmazeutische Zeitung 127, 2183-5 (1982)

>  <mol_id> (54)
2889

>  <LD50-mouse-oral> (54)
150

>  <LD50-mou-ip> (54)
10

>  <MolWeight> (54)
262.30

>  <Nickname> (54)
Helenalin

>  <other Names> (54)
(3aS-(3aalpha,4alpha,4abeta,7aalpha,8alpha,9aalpha))-3,3a,4,4a,7a,8,9,9a-octahydro-4-Hydroxy-4a,8-dimethyl-3-methylene-azuleno(6,5-b)furan-2,5-dione

$$$$

csChmFindW11180110282D

 37 39  0  0  0  0  0  0  0  0999 V2000
    2.2030    4.4332   -0.8902 C   0  0  0  0  0  0  0  0  0  0  0  0
    2.6329    6.3741   -0.5635 C   0  0  0  0  0  0  0  0  0  0  0  0
    1.5518    6.8093    1.0081 C   0  0  0  0  0  0  0  0  0  0  0  0
    0.8659    5.1557    1.7079 C   0  0  0  0  0  0  0  0  0  0  0  0
    1.3588    3.7784    0.6682 O   0  0  0  0  0  0  0  0  0  0  0  0
    8.8937    5.4392    0.8224 C   0  0  0  0  0  0  0  0  0  0  0  0
    8.1976    3.9770    0.1504 C   0  0  0  0  0  0  0  0  0  0  0  0
    7.5504    6.8171    0.9269 C   0  0  0  0  0  0  0  0  0  0  0  0
    5.7860    5.8962    0.6506 C   0  0  0  0  0  0  0  0  0  0  0  0
    4.5034    7.0292   -0.3539 C   0  0  0  0  0  0  0  0  0  0  0  0
    6.3386    4.2612   -0.3907 C   0  0  0  0  0  0  0  0  0  0  0  0
    3.5430    3.1176   -1.4728 C   0  0  0  0  0  0  0  0  0  0  0  0
    5.0734    2.7587   -0.2697 C   0  0  0  0  0  0  0  0  0  0  0  0
    0.0000    4.7977    2.9945 O   0  0  0  0  0  0  0  0  0  0  0  0
    7.7581    8.3816    1.1597 O   0  0  0  0  0  0  0  0  0  0  0  0
    1.2072    8.3750    1.6545 C   0  0  0  0  0  0  0  0  0  0  0  0
    5.1080    7.3496   -2.0751 O   0  0  0  0  0  0  0  0  0  0  0  0
    5.1262    5.4900    2.4650 C   0  0  0  0  0  0  0  0  0  0  0  0
    5.9269    1.0609   -0.7902 C   0  0  0  0  0  0  0  0  0  0  0  0
    1.1467    4.4210   -1.9164 H   0  0  0  0  0  0  0  0  0  0  0  0
    2.1096    7.1106   -1.7219 H   0  0  0  0  0  0  0  0  0  0  0  0
   10.2254    5.6651    1.2496 H   0  0  0  0  0  0  0  0  0  0  0  0
    8.8520    2.7394   -0.0767 H   0  0  0  0  0  0  0  0  0  0  0  0
    4.4315    8.3165    0.3588 H   0  0  0  0  0  0  0  0  0  0  0  0
    6.4111    4.6556   -1.8097 H   0  0  0  0  0  0  0  0  0  0  0  0
    4.0355    3.5506   -2.7763 H   0  0  0  0  0  0  0  0  0  0  0  0
    2.8206    1.8608   -1.6662 H   0  0  0  0  0  0  0  0  0  0  0  0
    4.5754    2.6126    1.0966 H   0  0  0  0  0  0  0  0  0  0  0  0
    0.3715    8.5455    2.8013 H   0  0  0  0  0  0  0  0  0  0  0  0
    1.7358    9.5712    1.0822 H   0  0  0  0  0  0  0  0  0  0  0  0
    6.1895    7.9757   -1.9622 H   0  0  0  0  0  0  0  0  0  0  0  0
    3.8418    4.8198    2.4194 H   0  0  0  0  0  0  0  0  0  0  0  0
    4.9777    6.7212    3.2196 H   0  0  0  0  0  0  0  0  0  0  0  0
    6.0679    4.6289    3.1557 H   0  0  0  0  0  0  0  0  0  0  0  0
    4.9390    0.0000   -0.8516 H   0  0  0  0  0  0  0  0  0  0  0  0
    6.9325    0.6812    0.1833 H   0  0  0  0  0  0  0  0  0  0  0  0
    6.5580    1.1792   -2.0903 H   0  0  0  0  0  0  0  0  0  0  0  0
  1  2  1  0  0  0  0
  1  5  1  1  0  0  0
  1 12  1  0  0  0  0
  1 20  1  6  0  0  0
  2  3  1  1  0  0  0
  2 10  1  0  0  0  0
  2 21  1  6  0  0  0
  3  4  1  0  0  0  0
  3 16  2  0  0  0  0
  4  5  1  6  0  0  0
  4 14  2  0  0  0  0
  6  7  2  0  0  0  0
  6  8  1  0  0  0  0
  6 22  1  0  0  0  0
  7 11  1  0  0  0  0
  7 23  1  0  0  0  0
  8  9  1  0  0  0  0
  8 15  2  0  0  0  0
  9 10  1  6  0  0  0
  9 11  1  6  0  0  0
  9 18  1  1  0  0  0
 10 17  1  6  0  0  0
 10 24  1  1  0  0  0
 11 13  1  0  0  0  0
 11 25  1  6  0  0  0
 12 13  1  1  0  0  0
 12 26  1  6  0  0  0
 12 27  1  0  0  0  0
 13 19  1  0  0  0  0
 13 28  1  1  0  0  0
 16 29  1  1  0  0  0
 16 30  1  0  0  0  0
 17 31  1  0  0  0  0
 18 32  1  0  0  0  0
 18 33  1  1  0  0  0
 18 34  1  1  0  0  0
 19 35  1  0  0  0  0
 19 36  1  1  0  0  0
 19 37  1  6  0  0  0
M  END
>  <Formula> (55)
C15H18O4

>  <Name> (55)
4-HYDROXY-4A,8-DIMETHYL-3-METHYLENE-3,3A,4,4A,7A,8,9,9A-OCTAHYDRO-AZULENO[6,5-B]FURAN-2,5-DIONE

>  <CAS-Nr> (55)
6754-13-8

>  <LD50-rat-oral> (55)
125

>  <Compound classification> (55)
Sesquiterpene

>  <Microorganism> (55)
Rhizoctonia solani

>  <Microorganism type> (55)
NCTC 325.47

>  <Microorganism classification> (55)
fungi

>  <Inhibition zone> (55)
0

>  <ADT evaluation> (55)
1

>  <Method abbreviation> (55)
ADT

>  <Ref-Nr> (55)
418

>  <Marker> (55)
0

>  <Method> (55)
Agar diffusion test; Medium: malt extract or yeast/malt extract agar; Inoculum size: spore, cell or mycel suspension was given to molten agar; disk diameter: 6 mm; Incubation-temperature: --; Incubation time: 12-48h; compound dose: 0.1 mg per disk; Solubility enhancer: methanol; Serial dilution test; Inoculum size: 1x10E6 cells/ml; Medium: nutrient broth; pH: ---; Incubation-temperature: 27 or 37 degrees Centigrade; Incubation-time: 24h; Solubility enhancer: methanol, ultrasonic

>  <Reference> (55)
Willhuhn, G., P.-M. Roettger, Quack, W.: Untersuchungen zur Antimikrobiellen Aktivitaet der Sesquiterpenlactone aus Arnikablueten; Pharmazeutische Zeitung 127, 2183-5 (1982)

>  <mol_id> (55)
2889

>  <LD50-mouse-oral> (55)
150

>  <LD50-mou-ip> (55)
10

>  <MolWeight> (55)
262.30

>  <Nickname> (55)
Helenalin

>  <other Names> (55)
(3aS-(3aalpha,4alpha,4abeta,7aalpha,8alpha,9aalpha))-3,3a,4,4a,7a,8,9,9a-octahydro-4-Hydroxy-4a,8-dimethyl-3-methylene-azuleno(6,5-b)furan-2,5-dione

$$$$

csChmFindW11180110282D

 37 39  0  0  0  0  0  0  0  0999 V2000
    2.2030    4.4332   -0.8902 C   0  0  0  0  0  0  0  0  0  0  0  0
    2.6329    6.3741   -0.5635 C   0  0  0  0  0  0  0  0  0  0  0  0
    1.5518    6.8093    1.0081 C   0  0  0  0  0  0  0  0  0  0  0  0
    0.8659    5.1557    1.7079 C   0  0  0  0  0  0  0  0  0  0  0  0
    1.3588    3.7784    0.6682 O   0  0  0  0  0  0  0  0  0  0  0  0
    8.8937    5.4392    0.8224 C   0  0  0  0  0  0  0  0  0  0  0  0
    8.1976    3.9770    0.1504 C   0  0  0  0  0  0  0  0  0  0  0  0
    7.5504    6.8171    0.9269 C   0  0  0  0  0  0  0  0  0  0  0  0
    5.7860    5.8962    0.6506 C   0  0  0  0  0  0  0  0  0  0  0  0
    4.5034    7.0292   -0.3539 C   0  0  0  0  0  0  0  0  0  0  0  0
    6.3386    4.2612   -0.3907 C   0  0  0  0  0  0  0  0  0  0  0  0
    3.5430    3.1176   -1.4728 C   0  0  0  0  0  0  0  0  0  0  0  0
    5.0734    2.7587   -0.2697 C   0  0  0  0  0  0  0  0  0  0  0  0
    0.0000    4.7977    2.9945 O   0  0  0  0  0  0  0  0  0  0  0  0
    7.7581    8.3816    1.1597 O   0  0  0  0  0  0  0  0  0  0  0  0
    1.2072    8.3750    1.6545 C   0  0  0  0  0  0  0  0  0  0  0  0
    5.1080    7.3496   -2.0751 O   0  0  0  0  0  0  0  0  0  0  0  0
    5.1262    5.4900    2.4650 C   0  0  0  0  0  0  0  0  0  0  0  0
    5.9269    1.0609   -0.7902 C   0  0  0  0  0  0  0  0  0  0  0  0
    1.1467    4.4210   -1.9164 H   0  0  0  0  0  0  0  0  0  0  0  0
    2.1096    7.1106   -1.7219 H   0  0  0  0  0  0  0  0  0  0  0  0
   10.2254    5.6651    1.2496 H   0  0  0  0  0  0  0  0  0  0  0  0
    8.8520    2.7394   -0.0767 H   0  0  0  0  0  0  0  0  0  0  0  0
    4.4315    8.3165    0.3588 H   0  0  0  0  0  0  0  0  0  0  0  0
    6.4111    4.6556   -1.8097 H   0  0  0  0  0  0  0  0  0  0  0  0
    4.0355    3.5506   -2.7763 H   0  0  0  0  0  0  0  0  0  0  0  0
    2.8206    1.8608   -1.6662 H   0  0  0  0  0  0  0  0  0  0  0  0
    4.5754    2.6126    1.0966 H   0  0  0  0  0  0  0  0  0  0  0  0
    0.3715    8.5455    2.8013 H   0  0  0  0  0  0  0  0  0  0  0  0
    1.7358    9.5712    1.0822 H   0  0  0  0  0  0  0  0  0  0  0  0
    6.1895    7.9757   -1.9622 H   0  0  0  0  0  0  0  0  0  0  0  0
    3.8418    4.8198    2.4194 H   0  0  0  0  0  0  0  0  0  0  0  0
    4.9777    6.7212    3.2196 H   0  0  0  0  0  0  0  0  0  0  0  0
    6.0679    4.6289    3.1557 H   0  0  0  0  0  0  0  0  0  0  0  0
    4.9390    0.0000   -0.8516 H   0  0  0  0  0  0  0  0  0  0  0  0
    6.9325    0.6812    0.1833 H   0  0  0  0  0  0  0  0  0  0  0  0
    6.5580    1.1792   -2.0903 H   0  0  0  0  0  0  0  0  0  0  0  0
  1  2  1  0  0  0  0
  1  5  1  1  0  0  0
  1 12  1  0  0  0  0
  1 20  1  6  0  0  0
  2  3  1  1  0  0  0
  2 10  1  0  0  0  0
  2 21  1  6  0  0  0
  3  4  1  0  0  0  0
  3 16  2  0  0  0  0
  4  5  1  6  0  0  0
  4 14  2  0  0  0  0
  6  7  2  0  0  0  0
  6  8  1  0  0  0  0
  6 22  1  0  0  0  0
  7 11  1  0  0  0  0
  7 23  1  0  0  0  0
  8  9  1  0  0  0  0
  8 15  2  0  0  0  0
  9 10  1  6  0  0  0
  9 11  1  6  0  0  0
  9 18  1  1  0  0  0
 10 17  1  6  0  0  0
 10 24  1  1  0  0  0
 11 13  1  0  0  0  0
 11 25  1  6  0  0  0
 12 13  1  1  0  0  0
 12 26  1  6  0  0  0
 12 27  1  0  0  0  0
 13 19  1  0  0  0  0
 13 28  1  1  0  0  0
 16 29  1  1  0  0  0
 16 30  1  0  0  0  0
 17 31  1  0  0  0  0
 18 32  1  0  0  0  0
 18 33  1  1  0  0  0
 18 34  1  1  0  0  0
 19 35  1  0  0  0  0
 19 36  1  1  0  0  0
 19 37  1  6  0  0  0
M  END
>  <Formula> (56)
C15H18O4

>  <Name> (56)
4-HYDROXY-4A,8-DIMETHYL-3-METHYLENE-3,3A,4,4A,7A,8,9,9A-OCTAHYDRO-AZULENO[6,5-B]FURAN-2,5-DIONE

>  <CAS-Nr> (56)
6754-13-8

>  <LD50-rat-oral> (56)
125

>  <Compound classification> (56)
Sesquiterpene

>  <Microorganism> (56)
Aspergillus panamensis

>  <Microorganism type> (56)
NCTC 120.45

>  <Microorganism classification> (56)
yeast

>  <Inhibition zone> (56)
0

>  <ADT evaluation> (56)
1

>  <Method abbreviation> (56)
ADT

>  <Ref-Nr> (56)
418

>  <Marker> (56)
0

>  <Method> (56)
Agar diffusion test; Medium: malt extract or yeast/malt extract agar; Inoculum size: spore, cell or mycel suspension was given to molten agar; disk diameter: 6 mm; Incubation-temperature: --; Incubation time: 12-48h; compound dose: 0.1 mg per disk; Solubility enhancer: methanol; Serial dilution test; Inoculum size: 1x10E6 cells/ml; Medium: nutrient broth; pH: ---; Incubation-temperature: 27 or 37 degrees Centigrade; Incubation-time: 24h; Solubility enhancer: methanol, ultrasonic

>  <Reference> (56)
Willhuhn, G., P.-M. Roettger, Quack, W.: Untersuchungen zur Antimikrobiellen Aktivitaet der Sesquiterpenlactone aus Arnikablueten; Pharmazeutische Zeitung 127, 2183-5 (1982)

>  <mol_id> (56)
2889

>  <LD50-mouse-oral> (56)
150

>  <LD50-mou-ip> (56)
10

>  <MolWeight> (56)
262.30

>  <Nickname> (56)
Helenalin

>  <other Names> (56)
(3aS-(3aalpha,4alpha,4abeta,7aalpha,8alpha,9aalpha))-3,3a,4,4a,7a,8,9,9a-octahydro-4-Hydroxy-4a,8-dimethyl-3-methylene-azuleno(6,5-b)furan-2,5-dione

$$$$

csChmFindW11180110282D

 37 39  0  0  0  0  0  0  0  0999 V2000
    2.2030    4.4332   -0.8902 C   0  0  0  0  0  0  0  0  0  0  0  0
    2.6329    6.3741   -0.5635 C   0  0  0  0  0  0  0  0  0  0  0  0
    1.5518    6.8093    1.0081 C   0  0  0  0  0  0  0  0  0  0  0  0
    0.8659    5.1557    1.7079 C   0  0  0  0  0  0  0  0  0  0  0  0
    1.3588    3.7784    0.6682 O   0  0  0  0  0  0  0  0  0  0  0  0
    8.8937    5.4392    0.8224 C   0  0  0  0  0  0  0  0  0  0  0  0
    8.1976    3.9770    0.1504 C   0  0  0  0  0  0  0  0  0  0  0  0
    7.5504    6.8171    0.9269 C   0  0  0  0  0  0  0  0  0  0  0  0
    5.7860    5.8962    0.6506 C   0  0  0  0  0  0  0  0  0  0  0  0
    4.5034    7.0292   -0.3539 C   0  0  0  0  0  0  0  0  0  0  0  0
    6.3386    4.2612   -0.3907 C   0  0  0  0  0  0  0  0  0  0  0  0
    3.5430    3.1176   -1.4728 C   0  0  0  0  0  0  0  0  0  0  0  0
    5.0734    2.7587   -0.2697 C   0  0  0  0  0  0  0  0  0  0  0  0
    0.0000    4.7977    2.9945 O   0  0  0  0  0  0  0  0  0  0  0  0
    7.7581    8.3816    1.1597 O   0  0  0  0  0  0  0  0  0  0  0  0
    1.2072    8.3750    1.6545 C   0  0  0  0  0  0  0  0  0  0  0  0
    5.1080    7.3496   -2.0751 O   0  0  0  0  0  0  0  0  0  0  0  0
    5.1262    5.4900    2.4650 C   0  0  0  0  0  0  0  0  0  0  0  0
    5.9269    1.0609   -0.7902 C   0  0  0  0  0  0  0  0  0  0  0  0
    1.1467    4.4210   -1.9164 H   0  0  0  0  0  0  0  0  0  0  0  0
    2.1096    7.1106   -1.7219 H   0  0  0  0  0  0  0  0  0  0  0  0
   10.2254    5.6651    1.2496 H   0  0  0  0  0  0  0  0  0  0  0  0
    8.8520    2.7394   -0.0767 H   0  0  0  0  0  0  0  0  0  0  0  0
    4.4315    8.3165    0.3588 H   0  0  0  0  0  0  0  0  0  0  0  0
    6.4111    4.6556   -1.8097 H   0  0  0  0  0  0  0  0  0  0  0  0
    4.0355    3.5506   -2.7763 H   0  0  0  0  0  0  0  0  0  0  0  0
    2.8206    1.8608   -1.6662 H   0  0  0  0  0  0  0  0  0  0  0  0
    4.5754    2.6126    1.0966 H   0  0  0  0  0  0  0  0  0  0  0  0
    0.3715    8.5455    2.8013 H   0  0  0  0  0  0  0  0  0  0  0  0
    1.7358    9.5712    1.0822 H   0  0  0  0  0  0  0  0  0  0  0  0
    6.1895    7.9757   -1.9622 H   0  0  0  0  0  0  0  0  0  0  0  0
    3.8418    4.8198    2.4194 H   0  0  0  0  0  0  0  0  0  0  0  0
    4.9777    6.7212    3.2196 H   0  0  0  0  0  0  0  0  0  0  0  0
    6.0679    4.6289    3.1557 H   0  0  0  0  0  0  0  0  0  0  0  0
    4.9390    0.0000   -0.8516 H   0  0  0  0  0  0  0  0  0  0  0  0
    6.9325    0.6812    0.1833 H   0  0  0  0  0  0  0  0  0  0  0  0
    6.5580    1.1792   -2.0903 H   0  0  0  0  0  0  0  0  0  0  0  0
  1  2  1  0  0  0  0
  1  5  1  1  0  0  0
  1 12  1  0  0  0  0
  1 20  1  6  0  0  0
  2  3  1  1  0  0  0
  2 10  1  0  0  0  0
  2 21  1  6  0  0  0
  3  4  1  0  0  0  0
  3 16  2  0  0  0  0
  4  5  1  6  0  0  0
  4 14  2  0  0  0  0
  6  7  2  0  0  0  0
  6  8  1  0  0  0  0
  6 22  1  0  0  0  0
  7 11  1  0  0  0  0
  7 23  1  0  0  0  0
  8  9  1  0  0  0  0
  8 15  2  0  0  0  0
  9 10  1  6  0  0  0
  9 11  1  6  0  0  0
  9 18  1  1  0  0  0
 10 17  1  6  0  0  0
 10 24  1  1  0  0  0
 11 13  1  0  0  0  0
 11 25  1  6  0  0  0
 12 13  1  1  0  0  0
 12 26  1  6  0  0  0
 12 27  1  0  0  0  0
 13 19  1  0  0  0  0
 13 28  1  1  0  0  0
 16 29  1  1  0  0  0
 16 30  1  0  0  0  0
 17 31  1  0  0  0  0
 18 32  1  0  0  0  0
 18 33  1  1  0  0  0
 18 34  1  1  0  0  0
 19 35  1  0  0  0  0
 19 36  1  1  0  0  0
 19 37  1  6  0  0  0
M  END
>  <Formula> (57)
C15H18O4

>  <Name> (57)
4-HYDROXY-4A,8-DIMETHYL-3-METHYLENE-3,3A,4,4A,7A,8,9,9A-OCTAHYDRO-AZULENO[6,5-B]FURAN-2,5-DIONE

>  <CAS-Nr> (57)
6754-13-8

>  <LD50-rat-oral> (57)
125

>  <Compound classification> (57)
Sesquiterpene

>  <Microorganism> (57)
Pichia anomala

>  <Microorganism type> (57)
NCTC 1683

>  <Publication strain name> (57)
Hansenula anomala

>  <Microorganism classification> (57)
yeast

>  <Inhibition zone> (57)
0

>  <ADT evaluation> (57)
1

>  <Method abbreviation> (57)
ADT

>  <Ref-Nr> (57)
418

>  <Marker> (57)
0

>  <Method> (57)
Agar diffusion test; Medium: malt extract or yeast/malt extract agar; Inoculum size: spore, cell or mycel suspension was given to molten agar; disk diameter: 6 mm; Incubation-temperature: --; Incubation time: 12-48h; compound dose: 0.1 mg per disk; Solubility enhancer: methanol; Serial dilution test; Inoculum size: 1x10E6 cells/ml; Medium: nutrient broth; pH: ---; Incubation-temperature: 27 or 37 degrees Centigrade; Incubation-time: 24h; Solubility enhancer: methanol, ultrasonic

>  <Reference> (57)
Willhuhn, G., P.-M. Roettger, Quack, W.: Untersuchungen zur Antimikrobiellen Aktivitaet der Sesquiterpenlactone aus Arnikablueten; Pharmazeutische Zeitung 127, 2183-5 (1982)

>  <mol_id> (57)
2889

>  <LD50-mouse-oral> (57)
150

>  <LD50-mou-ip> (57)
10

>  <MolWeight> (57)
262.30

>  <Nickname> (57)
Helenalin

>  <other Names> (57)
(3aS-(3aalpha,4alpha,4abeta,7aalpha,8alpha,9aalpha))-3,3a,4,4a,7a,8,9,9a-octahydro-4-Hydroxy-4a,8-dimethyl-3-methylene-azuleno(6,5-b)furan-2,5-dione

$$$$

csChmFindW11180110282D

 31 31  0  0  0  0  0  0  0  0999 V2000
    3.0800    4.0917   -0.1470 C   0  0  0  0  0  0  0  0  0  0  0  0
    4.6269    5.2006   -0.8321 C   0  0  0  0  0  0  0  0  0  0  0  0
    1.3516    5.1500   -0.3299 C   0  0  0  0  0  0  0  0  0  0  0  0
    4.5943    7.0219    0.0473 C   0  0  0  0  0  0  0  0  0  0  0  0
    1.3366    6.6984    0.7163 C   0  0  0  0  0  0  0  0  0  0  0  0
    2.7903    7.9619    0.0013 C   0  0  0  0  0  0  0  0  0  0  0  0
    2.9430    2.3741   -1.2292 C   0  0  0  0  0  0  0  0  0  0  0  0
    6.2336    4.3355   -0.3088 O   0  0  0  0  0  0  0  0  0  0  0  0
    1.3870    1.2586   -0.5401 C   0  0  0  0  0  0  0  0  0  0  0  0
    4.6714    1.3158   -1.0464 C   0  0  0  0  0  0  0  0  0  0  0  0
    2.8659    9.6342    1.1580 C   0  0  0  0  0  0  0  0  0  0  0  0
    3.3066    3.7601    1.2848 H   0  0  0  0  0  0  0  0  0  0  0  0
    4.5047    5.3611   -2.3025 H   0  0  0  0  0  0  0  0  0  0  0  0
    0.1797    4.2893    0.0265 H   0  0  0  0  0  0  0  0  0  0  0  0
    1.2022    5.5281   -1.7757 H   0  0  0  0  0  0  0  0  0  0  0  0
    5.6207    7.8977   -0.6065 H   0  0  0  0  0  0  0  0  0  0  0  0
    5.0037    6.8431    1.4789 H   0  0  0  0  0  0  0  0  0  0  0  0
    1.6584    6.3402    2.1368 H   0  0  0  0  0  0  0  0  0  0  0  0
    0.0000    7.3644    0.5982 H   0  0  0  0  0  0  0  0  0  0  0  0
    2.4679    8.3431   -1.3993 H   0  0  0  0  0  0  0  0  0  0  0  0
    2.7147    2.7091   -2.6602 H   0  0  0  0  0  0  0  0  0  0  0  0
    7.1843    5.0371   -0.7417 H   0  0  0  0  0  0  0  0  0  0  0  0
    1.2769    0.0000   -1.3241 H   0  0  0  0  0  0  0  0  0  0  0  0
    0.1174    2.0222   -0.6691 H   0  0  0  0  0  0  0  0  0  0  0  0
    1.5993    0.9200    0.8922 H   0  0  0  0  0  0  0  0  0  0  0  0
    4.5831    0.0575   -1.8338 H   0  0  0  0  0  0  0  0  0  0  0  0
    4.9118    0.9775    0.3816 H   0  0  0  0  0  0  0  0  0  0  0  0
    5.8164    2.1213   -1.5477 H   0  0  0  0  0  0  0  0  0  0  0  0
    1.5523   10.3302    1.1321 H   0  0  0  0  0  0  0  0  0  0  0  0
    3.9134   10.5582    0.6480 H   0  0  0  0  0  0  0  0  0  0  0  0
    3.1919    9.2673    2.5616 H   0  0  0  0  0  0  0  0  0  0  0  0
  1  2  1  0  0  0  0
  1  3  1  0  0  0  0
  1  7  1  6  0  0  0
  1 12  1  1  0  0  0
  2  4  1  0  0  0  0
  2  8  1  0  0  0  0
  2 13  1  6  0  0  0
  3  5  1  1  0  0  0
  3 14  1  0  0  0  0
  3 15  1  6  0  0  0
  4  6  1  0  0  0  0
  4 16  1  0  0  0  0
  4 17  1  1  0  0  0
  5  6  1  0  0  0  0
  5 18  1  1  0  0  0
  5 19  1  0  0  0  0
  6 11  1  1  0  0  0
  6 20  1  6  0  0  0
  7  9  1  0  0  0  0
  7 10  1  0  0  0  0
  7 21  1  6  0  0  0
  8 22  1  0  0  0  0
  9 23  1  6  0  0  0
  9 24  1  0  0  0  0
  9 25  1  1  0  0  0
 10 26  1  6  0  0  0
 10 27  1  1  0  0  0
 10 28  1  0  0  0  0
 11 29  1  0  0  0  0
 11 30  1  0  0  0  0
 11 31  1  1  0  0  0
M  END
>  <Formula> (58)
C10H20O

>  <Name> (58)
(1R-1ALPHA,2BETA,5ALPHA)-5-METHYL-2-(1-METHYLETHYL)-CYCLOHEXANOL

>  <CAS-Nr> (58)
2216-51-5

>  <EINECS> (58)
218-690-9

>  <21 CFR> (58)
172.515, 182.20 (Menthol)

>  <LD50-rat-oral> (58)
3300

>  <Compound classification> (58)
Monoterpene

>  <Microorganism> (58)
Trichophyton rubrum

>  <Microorganism classification> (58)
fungi

>  <NIC> (58)
310

>  <Method abbreviation> (58)
ADlT

>  <Ref-Nr> (58)
1001

>  <Marker> (58)
0

>  <Method> (58)
Agar dilution test; Inoculum size: ---; Medium: 2% glucose agar; pH: ---; Incubation-temperature: 27 degrees Centigrade; Incubation-time: till growth; Solubility enhancer: diethylether

>  <Reference> (58)
Kurita, N.: Recent Findings on the Antimicrobial Effect of Essential Oil Components; Bokin Bobai 10, 301-8 (1982)

>  <mol_id> (58)
710

>  <LD50-mouse-oral> (58)
3400

>  <LD50-mou-ip> (58)
6600

>  <MolWeight> (58)
156.26

>  <Nickname> (58)
l-Menthol

>  <other Names> (58)
(-)-Menthol, U.S.P. Menthol, Levomenthol

$$$$

csChmFindW11180110282D

 31 31  0  0  0  0  0  0  0  0999 V2000
    3.0800    4.0917   -0.1470 C   0  0  0  0  0  0  0  0  0  0  0  0
    4.6269    5.2006   -0.8321 C   0  0  0  0  0  0  0  0  0  0  0  0
    1.3516    5.1500   -0.3299 C   0  0  0  0  0  0  0  0  0  0  0  0
    4.5943    7.0219    0.0473 C   0  0  0  0  0  0  0  0  0  0  0  0
    1.3366    6.6984    0.7163 C   0  0  0  0  0  0  0  0  0  0  0  0
    2.7903    7.9619    0.0013 C   0  0  0  0  0  0  0  0  0  0  0  0
    2.9430    2.3741   -1.2292 C   0  0  0  0  0  0  0  0  0  0  0  0
    6.2336    4.3355   -0.3088 O   0  0  0  0  0  0  0  0  0  0  0  0
    1.3870    1.2586   -0.5401 C   0  0  0  0  0  0  0  0  0  0  0  0
    4.6714    1.3158   -1.0464 C   0  0  0  0  0  0  0  0  0  0  0  0
    2.8659    9.6342    1.1580 C   0  0  0  0  0  0  0  0  0  0  0  0
    3.3066    3.7601    1.2848 H   0  0  0  0  0  0  0  0  0  0  0  0
    4.5047    5.3611   -2.3025 H   0  0  0  0  0  0  0  0  0  0  0  0
    0.1797    4.2893    0.0265 H   0  0  0  0  0  0  0  0  0  0  0  0
    1.2022    5.5281   -1.7757 H   0  0  0  0  0  0  0  0  0  0  0  0
    5.6207    7.8977   -0.6065 H   0  0  0  0  0  0  0  0  0  0  0  0
    5.0037    6.8431    1.4789 H   0  0  0  0  0  0  0  0  0  0  0  0
    1.6584    6.3402    2.1368 H   0  0  0  0  0  0  0  0  0  0  0  0
    0.0000    7.3644    0.5982 H   0  0  0  0  0  0  0  0  0  0  0  0
    2.4679    8.3431   -1.3993 H   0  0  0  0  0  0  0  0  0  0  0  0
    2.7147    2.7091   -2.6602 H   0  0  0  0  0  0  0  0  0  0  0  0
    7.1843    5.0371   -0.7417 H   0  0  0  0  0  0  0  0  0  0  0  0
    1.2769    0.0000   -1.3241 H   0  0  0  0  0  0  0  0  0  0  0  0
    0.1174    2.0222   -0.6691 H   0  0  0  0  0  0  0  0  0  0  0  0
    1.5993    0.9200    0.8922 H   0  0  0  0  0  0  0  0  0  0  0  0
    4.5831    0.0575   -1.8338 H   0  0  0  0  0  0  0  0  0  0  0  0
    4.9118    0.9775    0.3816 H   0  0  0  0  0  0  0  0  0  0  0  0
    5.8164    2.1213   -1.5477 H   0  0  0  0  0  0  0  0  0  0  0  0
    1.5523   10.3302    1.1321 H   0  0  0  0  0  0  0  0  0  0  0  0
    3.9134   10.5582    0.6480 H   0  0  0  0  0  0  0  0  0  0  0  0
    3.1919    9.2673    2.5616 H   0  0  0  0  0  0  0  0  0  0  0  0
  1  2  1  0  0  0  0
  1  3  1  0  0  0  0
  1  7  1  6  0  0  0
  1 12  1  1  0  0  0
  2  4  1  0  0  0  0
  2  8  1  0  0  0  0
  2 13  1  6  0  0  0
  3  5  1  1  0  0  0
  3 14  1  0  0  0  0
  3 15  1  6  0  0  0
  4  6  1  0  0  0  0
  4 16  1  0  0  0  0
  4 17  1  1  0  0  0
  5  6  1  0  0  0  0
  5 18  1  1  0  0  0
  5 19  1  0  0  0  0
  6 11  1  1  0  0  0
  6 20  1  6  0  0  0
  7  9  1  0  0  0  0
  7 10  1  0  0  0  0
  7 21  1  6  0  0  0
  8 22  1  0  0  0  0
  9 23  1  6  0  0  0
  9 24  1  0  0  0  0
  9 25  1  1  0  0  0
 10 26  1  6  0  0  0
 10 27  1  1  0  0  0
 10 28  1  0  0  0  0
 11 29  1  0  0  0  0
 11 30  1  0  0  0  0
 11 31  1  1  0  0  0
M  END
>  <Formula> (59)
C10H20O

>  <Name> (59)
(1R-1ALPHA,2BETA,5ALPHA)-5-METHYL-2-(1-METHYLETHYL)-CYCLOHEXANOL

>  <CAS-Nr> (59)
2216-51-5

>  <EINECS> (59)
218-690-9

>  <21 CFR> (59)
172.515, 182.20 (Menthol)

>  <LD50-rat-oral> (59)
3300

>  <Compound classification> (59)
Monoterpene

>  <Microorganism> (59)
Ajellomyces dermatitidis

>  <Publication strain name> (59)
Blastomyces dermatitidis

>  <Microorganism classification> (59)
yeast

>  <NIC> (59)
310

>  <Method abbreviation> (59)
ADlT

>  <Ref-Nr> (59)
1001

>  <Marker> (59)
0

>  <Method> (59)
Agar dilution test; Inoculum size: ---; Medium: 2% glucose agar; pH: ---; Incubation-temperature: 27 degrees Centigrade; Incubation-time: till growth; Solubility enhancer: diethylether

>  <Reference> (59)
Kurita, N.: Recent Findings on the Antimicrobial Effect of Essential Oil Components; Bokin Bobai 10, 301-8 (1982)

>  <mol_id> (59)
710

>  <LD50-mouse-oral> (59)
3400

>  <LD50-mou-ip> (59)
6600

>  <MolWeight> (59)
156.26

>  <Nickname> (59)
l-Menthol

>  <other Names> (59)
(-)-Menthol, U.S.P. Menthol, Levomenthol

$$$$

csChmFindW11180110282D

 31 31  0  0  0  0  0  0  0  0999 V2000
    3.0800    4.0917   -0.1470 C   0  0  0  0  0  0  0  0  0  0  0  0
    4.6269    5.2006   -0.8321 C   0  0  0  0  0  0  0  0  0  0  0  0
    1.3516    5.1500   -0.3299 C   0  0  0  0  0  0  0  0  0  0  0  0
    4.5943    7.0219    0.0473 C   0  0  0  0  0  0  0  0  0  0  0  0
    1.3366    6.6984    0.7163 C   0  0  0  0  0  0  0  0  0  0  0  0
    2.7903    7.9619    0.0013 C   0  0  0  0  0  0  0  0  0  0  0  0
    2.9430    2.3741   -1.2292 C   0  0  0  0  0  0  0  0  0  0  0  0
    6.2336    4.3355   -0.3088 O   0  0  0  0  0  0  0  0  0  0  0  0
    1.3870    1.2586   -0.5401 C   0  0  0  0  0  0  0  0  0  0  0  0
    4.6714    1.3158   -1.0464 C   0  0  0  0  0  0  0  0  0  0  0  0
    2.8659    9.6342    1.1580 C   0  0  0  0  0  0  0  0  0  0  0  0
    3.3066    3.7601    1.2848 H   0  0  0  0  0  0  0  0  0  0  0  0
    4.5047    5.3611   -2.3025 H   0  0  0  0  0  0  0  0  0  0  0  0
    0.1797    4.2893    0.0265 H   0  0  0  0  0  0  0  0  0  0  0  0
    1.2022    5.5281   -1.7757 H   0  0  0  0  0  0  0  0  0  0  0  0
    5.6207    7.8977   -0.6065 H   0  0  0  0  0  0  0  0  0  0  0  0
    5.0037    6.8431    1.4789 H   0  0  0  0  0  0  0  0  0  0  0  0
    1.6584    6.3402    2.1368 H   0  0  0  0  0  0  0  0  0  0  0  0
    0.0000    7.3644    0.5982 H   0  0  0  0  0  0  0  0  0  0  0  0
    2.4679    8.3431   -1.3993 H   0  0  0  0  0  0  0  0  0  0  0  0
    2.7147    2.7091   -2.6602 H   0  0  0  0  0  0  0  0  0  0  0  0
    7.1843    5.0371   -0.7417 H   0  0  0  0  0  0  0  0  0  0  0  0
    1.2769    0.0000   -1.3241 H   0  0  0  0  0  0  0  0  0  0  0  0
    0.1174    2.0222   -0.6691 H   0  0  0  0  0  0  0  0  0  0  0  0
    1.5993    0.9200    0.8922 H   0  0  0  0  0  0  0  0  0  0  0  0
    4.5831    0.0575   -1.8338 H   0  0  0  0  0  0  0  0  0  0  0  0
    4.9118    0.9775    0.3816 H   0  0  0  0  0  0  0  0  0  0  0  0
    5.8164    2.1213   -1.5477 H   0  0  0  0  0  0  0  0  0  0  0  0
    1.5523   10.3302    1.1321 H   0  0  0  0  0  0  0  0  0  0  0  0
    3.9134   10.5582    0.6480 H   0  0  0  0  0  0  0  0  0  0  0  0
    3.1919    9.2673    2.5616 H   0  0  0  0  0  0  0  0  0  0  0  0
  1  2  1  0  0  0  0
  1  3  1  0  0  0  0
  1  7  1  6  0  0  0
  1 12  1  1  0  0  0
  2  4  1  0  0  0  0
  2  8  1  0  0  0  0
  2 13  1  6  0  0  0
  3  5  1  1  0  0  0
  3 14  1  0  0  0  0
  3 15  1  6  0  0  0
  4  6  1  0  0  0  0
  4 16  1  0  0  0  0
  4 17  1  1  0  0  0
  5  6  1  0  0  0  0
  5 18  1  1  0  0  0
  5 19  1  0  0  0  0
  6 11  1  1  0  0  0
  6 20  1  6  0  0  0
  7  9  1  0  0  0  0
  7 10  1  0  0  0  0
  7 21  1  6  0  0  0
  8 22  1  0  0  0  0
  9 23  1  6  0  0  0
  9 24  1  0  0  0  0
  9 25  1  1  0  0  0
 10 26  1  6  0  0  0
 10 27  1  1  0  0  0
 10 28  1  0  0  0  0
 11 29  1  0  0  0  0
 11 30  1  0  0  0  0
 11 31  1  1  0  0  0
M  END
>  <Formula> (60)
C10H20O

>  <Name> (60)
(1R-1ALPHA,2BETA,5ALPHA)-5-METHYL-2-(1-METHYLETHYL)-CYCLOHEXANOL

>  <CAS-Nr> (60)
2216-51-5

>  <EINECS> (60)
218-690-9

>  <21 CFR> (60)
172.515, 182.20 (Menthol)

>  <LD50-rat-oral> (60)
3300

>  <Compound classification> (60)
Monoterpene

>  <Microorganism> (60)
Penicillium viridicatum

>  <Microorganism type> (60)
FRI

>  <Microorganism classification> (60)
fungi

>  <NIC> (60)
312

>  <Annotation> (60)
+ 7% NaCl

>  <Method abbreviation> (60)
ADlT

>  <Ref-Nr> (60)
1004

>  <Marker> (60)
0

>  <Method> (60)
Agar dilution test; Inoculum size: ---; Medium: 2% glucose agar; pH: 6.4; Incubation-temperature: 27 degrees Centigrade; Incubation-time: till growth; Solubility enhancer: diethylether; no growth after 20 days was taken as MMC

>  <Reference> (60)
Kurita, N., Koike, S.: Synergistic Antimicrobial Activity of Sodium Chloride and Essential Oil Components; Journal of Agricultural and Biological Chemistry 46, 159-65 (1982)

>  <mol_id> (60)
710

>  <LD50-mouse-oral> (60)
3400

>  <LD50-mou-ip> (60)
6600

>  <MolWeight> (60)
156.26

>  <Nickname> (60)
l-Menthol

>  <other Names> (60)
(-)-Menthol, U.S.P. Menthol, Levomenthol

$$$$

csChmFindW11180110282D

 31 31  0  0  0  0  0  0  0  0999 V2000
    3.0800    4.0917   -0.1470 C   0  0  0  0  0  0  0  0  0  0  0  0
    4.6269    5.2006   -0.8321 C   0  0  0  0  0  0  0  0  0  0  0  0
    1.3516    5.1500   -0.3299 C   0  0  0  0  0  0  0  0  0  0  0  0
    4.5943    7.0219    0.0473 C   0  0  0  0  0  0  0  0  0  0  0  0
    1.3366    6.6984    0.7163 C   0  0  0  0  0  0  0  0  0  0  0  0
    2.7903    7.9619    0.0013 C   0  0  0  0  0  0  0  0  0  0  0  0
    2.9430    2.3741   -1.2292 C   0  0  0  0  0  0  0  0  0  0  0  0
    6.2336    4.3355   -0.3088 O   0  0  0  0  0  0  0  0  0  0  0  0
    1.3870    1.2586   -0.5401 C   0  0  0  0  0  0  0  0  0  0  0  0
    4.6714    1.3158   -1.0464 C   0  0  0  0  0  0  0  0  0  0  0  0
    2.8659    9.6342    1.1580 C   0  0  0  0  0  0  0  0  0  0  0  0
    3.3066    3.7601    1.2848 H   0  0  0  0  0  0  0  0  0  0  0  0
    4.5047    5.3611   -2.3025 H   0  0  0  0  0  0  0  0  0  0  0  0
    0.1797    4.2893    0.0265 H   0  0  0  0  0  0  0  0  0  0  0  0
    1.2022    5.5281   -1.7757 H   0  0  0  0  0  0  0  0  0  0  0  0
    5.6207    7.8977   -0.6065 H   0  0  0  0  0  0  0  0  0  0  0  0
    5.0037    6.8431    1.4789 H   0  0  0  0  0  0  0  0  0  0  0  0
    1.6584    6.3402    2.1368 H   0  0  0  0  0  0  0  0  0  0  0  0
    0.0000    7.3644    0.5982 H   0  0  0  0  0  0  0  0  0  0  0  0
    2.4679    8.3431   -1.3993 H   0  0  0  0  0  0  0  0  0  0  0  0
    2.7147    2.7091   -2.6602 H   0  0  0  0  0  0  0  0  0  0  0  0
    7.1843    5.0371   -0.7417 H   0  0  0  0  0  0  0  0  0  0  0  0
    1.2769    0.0000   -1.3241 H   0  0  0  0  0  0  0  0  0  0  0  0
    0.1174    2.0222   -0.6691 H   0  0  0  0  0  0  0  0  0  0  0  0
    1.5993    0.9200    0.8922 H   0  0  0  0  0  0  0  0  0  0  0  0
    4.5831    0.0575   -1.8338 H   0  0  0  0  0  0  0  0  0  0  0  0
    4.9118    0.9775    0.3816 H   0  0  0  0  0  0  0  0  0  0  0  0
    5.8164    2.1213   -1.5477 H   0  0  0  0  0  0  0  0  0  0  0  0
    1.5523   10.3302    1.1321 H   0  0  0  0  0  0  0  0  0  0  0  0
    3.9134   10.5582    0.6480 H   0  0  0  0  0  0  0  0  0  0  0  0
    3.1919    9.2673    2.5616 H   0  0  0  0  0  0  0  0  0  0  0  0
  1  2  1  0  0  0  0
  1  3  1  0  0  0  0
  1  7  1  6  0  0  0
  1 12  1  1  0  0  0
  2  4  1  0  0  0  0
  2  8  1  0  0  0  0
  2 13  1  6  0  0  0
  3  5  1  1  0  0  0
  3 14  1  0  0  0  0
  3 15  1  6  0  0  0
  4  6  1  0  0  0  0
  4 16  1  0  0  0  0
  4 17  1  1  0  0  0
  5  6  1  0  0  0  0
  5 18  1  1  0  0  0
  5 19  1  0  0  0  0
  6 11  1  1  0  0  0
  6 20  1  6  0  0  0
  7  9  1  0  0  0  0
  7 10  1  0  0  0  0
  7 21  1  6  0  0  0
  8 22  1  0  0  0  0
  9 23  1  6  0  0  0
  9 24  1  0  0  0  0
  9 25  1  1  0  0  0
 10 26  1  6  0  0  0
 10 27  1  1  0  0  0
 10 28  1  0  0  0  0
 11 29  1  0  0  0  0
 11 30  1  0  0  0  0
 11 31  1  1  0  0  0
M  END
>  <Formula> (61)
C10H20O

>  <Name> (61)
(1R-1ALPHA,2BETA,5ALPHA)-5-METHYL-2-(1-METHYLETHYL)-CYCLOHEXANOL

>  <CAS-Nr> (61)
2216-51-5

>  <EINECS> (61)
218-690-9

>  <21 CFR> (61)
172.515, 182.20 (Menthol)

>  <LD50-rat-oral> (61)
3300

>  <Compound classification> (61)
Monoterpene

>  <Microorganism> (61)
Penicillium viridicatum

>  <Microorganism type> (61)
FRI

>  <Microorganism classification> (61)
fungi

>  <NIC> (61)
312

>  <Method abbreviation> (61)
ADlT

>  <Ref-Nr> (61)
1004

>  <Marker> (61)
0

>  <Method> (61)
Agar dilution test; Inoculum size: ---; Medium: 2% glucose agar; pH: 6.4; Incubation-temperature: 27 degrees Centigrade; Incubation-time: till growth; Solubility enhancer: diethylether; no growth after 20 days was taken as MMC

>  <Reference> (61)
Kurita, N., Koike, S.: Synergistic Antimicrobial Activity of Sodium Chloride and Essential Oil Components; Journal of Agricultural and Biological Chemistry 46, 159-65 (1982)

>  <mol_id> (61)
710

>  <LD50-mouse-oral> (61)
3400

>  <LD50-mou-ip> (61)
6600

>  <MolWeight> (61)
156.26

>  <Nickname> (61)
l-Menthol

>  <other Names> (61)
(-)-Menthol, U.S.P. Menthol, Levomenthol

$$$$

csChmFindW11180110282D

 16 15  0  0  0  0  0  0  0  0999 V2000
    6.1027    3.0562    0.0279 C   0  0  0  0  0  0  0  0  0  0  0  0
    4.5092    2.1912    0.0271 C   0  0  0  0  0  0  0  0  0  0  0  0
    7.5772    2.2467    0.0190 C   0  0  0  0  0  0  0  0  0  0  0  0
    3.0341    3.0022    0.0360 C   0  0  0  0  0  0  0  0  0  0  0  0
    9.2077    3.1183    0.0168 C   0  0  0  0  0  0  0  0  0  0  0  0
    1.4142    2.1499    0.0353 C   0  0  0  0  0  0  0  0  0  0  0  0
    0.0000    2.7838    0.0460 O   0  0  0  0  0  0  0  0  0  0  0  0
    1.4690    0.4367    0.0213 O   0  0  0  0  0  0  0  0  0  0  0  0
    6.0552    4.4386    0.0365 H   0  0  0  0  0  0  0  0  0  0  0  0
    4.5470    0.8050    0.0185 H   0  0  0  0  0  0  0  0  0  0  0  0
    7.6265    0.8648    0.0105 H   0  0  0  0  0  0  0  0  0  0  0  0
    2.9370    4.3803    0.0447 H   0  0  0  0  0  0  0  0  0  0  0  0
   10.2671    2.2031    0.0397 H   0  0  0  0  0  0  0  0  0  0  0  0
    9.3236    3.9541    1.1372 H   0  0  0  0  0  0  0  0  0  0  0  0
    9.3389    3.9139   -1.1311 H   0  0  0  0  0  0  0  0  0  0  0  0
    0.3331    0.0000    0.0221 H   0  0  0  0  0  0  0  0  0  0  0  0
  1  2  1  0  0  0  0
  1  3  2  0  0  0  0
  1  9  1  0  0  0  0
  2  4  2  0  0  0  0
  2 10  1  0  0  0  0
  3  5  1  0  0  0  0
  3 11  1  0  0  0  0
  4  6  1  0  0  0  0
  4 12  1  0  0  0  0
  5 13  1  0  0  0  0
  5 14  1  1  0  0  0
  5 15  1  6  0  0  0
  6  7  2  0  0  0  0
  6  8  1  0  0  0  0
  8 16  1  0  0  0  0
M  END
>  <Formula> (62)
C6H8O2

>  <Name> (62)
(E,E)-2,4-HEXADIENOIC ACID

>  <CAS-Nr> (62)
110-44-1

>  <EINECS> (62)
203-768-7

>  <21 CFR> (62)
133.118, 150.161, 182.3089, 150.141, 166.110, 177.2260, 133.123, 133.124, 133.169, 133.173, 133.179, 133.187, 133.188, 172.872, 181.23

>  <LD50-rat-oral> (62)
7360

>  <Compound classification> (62)
Ali-COOH

>  <Microorganism> (62)
Aspergillus niger

>  <Microorganism classification> (62)
fungi

>  <MIC> (62)
1000

>  <Annotation> (62)
MIC: range >1000-2000 ppm, pH=4-7

>  <Method abbreviation> (62)
SDT

>  <Ref-Nr> (62)
1045

>  <Marker> (62)
0

>  <Method> (62)
Serial dilution tests: review article - methods cited therein; low MIC value was inserted in MIC field, inhibition range given among annotations

>  <Reference> (62)
Rehm, H.-J.: Grenzhemmkonzentrationen der zugelassenen Konservierungsmittel gegen Mikroorganismen; Zeitschrift fuer Lebensmittel-Untersuchung und -Forschung 115, 293 (1961)

>  <mol_id> (62)
203

>  <LD50-mouse-oral> (62)
3200

>  <LD50-mou-ip> (62)
2820

>  <MolWeight> (62)
112.12

>  <Nickname> (62)
Sorbic acid

$$$$

csChmFindW11180110282D

 16 15  0  0  0  0  0  0  0  0999 V2000
    6.1027    3.0562    0.0279 C   0  0  0  0  0  0  0  0  0  0  0  0
    4.5092    2.1912    0.0271 C   0  0  0  0  0  0  0  0  0  0  0  0
    7.5772    2.2467    0.0190 C   0  0  0  0  0  0  0  0  0  0  0  0
    3.0341    3.0022    0.0360 C   0  0  0  0  0  0  0  0  0  0  0  0
    9.2077    3.1183    0.0168 C   0  0  0  0  0  0  0  0  0  0  0  0
    1.4142    2.1499    0.0353 C   0  0  0  0  0  0  0  0  0  0  0  0
    0.0000    2.7838    0.0460 O   0  0  0  0  0  0  0  0  0  0  0  0
    1.4690    0.4367    0.0213 O   0  0  0  0  0  0  0  0  0  0  0  0
    6.0552    4.4386    0.0365 H   0  0  0  0  0  0  0  0  0  0  0  0
    4.5470    0.8050    0.0185 H   0  0  0  0  0  0  0  0  0  0  0  0
    7.6265    0.8648    0.0105 H   0  0  0  0  0  0  0  0  0  0  0  0
    2.9370    4.3803    0.0447 H   0  0  0  0  0  0  0  0  0  0  0  0
   10.2671    2.2031    0.0397 H   0  0  0  0  0  0  0  0  0  0  0  0
    9.3236    3.9541    1.1372 H   0  0  0  0  0  0  0  0  0  0  0  0
    9.3389    3.9139   -1.1311 H   0  0  0  0  0  0  0  0  0  0  0  0
    0.3331    0.0000    0.0221 H   0  0  0  0  0  0  0  0  0  0  0  0
  1  2  1  0  0  0  0
  1  3  2  0  0  0  0
  1  9  1  0  0  0  0
  2  4  2  0  0  0  0
  2 10  1  0  0  0  0
  3  5  1  0  0  0  0
  3 11  1  0  0  0  0
  4  6  1  0  0  0  0
  4 12  1  0  0  0  0
  5 13  1  0  0  0  0
  5 14  1  1  0  0  0
  5 15  1  6  0  0  0
  6  7  2  0  0  0  0
  6  8  1  0  0  0  0
  8 16  1  0  0  0  0
M  END
>  <Formula> (63)
C6H8O2

>  <Name> (63)
(E,E)-2,4-HEXADIENOIC ACID

>  <CAS-Nr> (63)
110-44-1

>  <EINECS> (63)
203-768-7

>  <21 CFR> (63)
133.118, 150.161, 182.3089, 150.141, 166.110, 177.2260, 133.123, 133.124, 133.169, 133.173, 133.179, 133.187, 133.188, 172.872, 181.23

>  <LD50-rat-oral> (63)
7360

>  <Compound classification> (63)
Ali-COOH

>  <Microorganism> (63)
Alternaria alternata

>  <Publication strain name> (63)
Alternaria tenuis

>  <Microorganism classification> (63)
fungi

>  <MIC> (63)
80

>  <Annotation> (63)
MIC: range 80-1000 ppm, pH=3.5-5

>  <Method abbreviation> (63)
SDT

>  <Ref-Nr> (63)
1045

>  <Marker> (63)
0

>  <Method> (63)
Serial dilution tests: review article - methods cited therein; low MIC value was inserted in MIC field, inhibition range given among annotations

>  <Reference> (63)
Rehm, H.-J.: Grenzhemmkonzentrationen der zugelassenen Konservierungsmittel gegen Mikroorganismen; Zeitschrift fuer Lebensmittel-Untersuchung und -Forschung 115, 293 (1961)

>  <mol_id> (63)
203

>  <LD50-mouse-oral> (63)
3200

>  <LD50-mou-ip> (63)
2820

>  <MolWeight> (63)
112.12

>  <Nickname> (63)
Sorbic acid

$$$$

csChmFindW11180110282D

 16 15  0  0  0  0  0  0  0  0999 V2000
    6.1027    3.0562    0.0279 C   0  0  0  0  0  0  0  0  0  0  0  0
    4.5092    2.1912    0.0271 C   0  0  0  0  0  0  0  0  0  0  0  0
    7.5772    2.2467    0.0190 C   0  0  0  0  0  0  0  0  0  0  0  0
    3.0341    3.0022    0.0360 C   0  0  0  0  0  0  0  0  0  0  0  0
    9.2077    3.1183    0.0168 C   0  0  0  0  0  0  0  0  0  0  0  0
    1.4142    2.1499    0.0353 C   0  0  0  0  0  0  0  0  0  0  0  0
    0.0000    2.7838    0.0460 O   0  0  0  0  0  0  0  0  0  0  0  0
    1.4690    0.4367    0.0213 O   0  0  0  0  0  0  0  0  0  0  0  0
    6.0552    4.4386    0.0365 H   0  0  0  0  0  0  0  0  0  0  0  0
    4.5470    0.8050    0.0185 H   0  0  0  0  0  0  0  0  0  0  0  0
    7.6265    0.8648    0.0105 H   0  0  0  0  0  0  0  0  0  0  0  0
    2.9370    4.3803    0.0447 H   0  0  0  0  0  0  0  0  0  0  0  0
   10.2671    2.2031    0.0397 H   0  0  0  0  0  0  0  0  0  0  0  0
    9.3236    3.9541    1.1372 H   0  0  0  0  0  0  0  0  0  0  0  0
    9.3389    3.9139   -1.1311 H   0  0  0  0  0  0  0  0  0  0  0  0
    0.3331    0.0000    0.0221 H   0  0  0  0  0  0  0  0  0  0  0  0
  1  2  1  0  0  0  0
  1  3  2  0  0  0  0
  1  9  1  0  0  0  0
  2  4  2  0  0  0  0
  2 10  1  0  0  0  0
  3  5  1  0  0  0  0
  3 11  1  0  0  0  0
  4  6  1  0  0  0  0
  4 12  1  0  0  0  0
  5 13  1  0  0  0  0
  5 14  1  1  0  0  0
  5 15  1  6  0  0  0
  6  7  2  0  0  0  0
  6  8  1  0  0  0  0
  8 16  1  0  0  0  0
M  END
>  <Formula> (64)
C6H8O2

>  <Name> (64)
(E,E)-2,4-HEXADIENOIC ACID

>  <CAS-Nr> (64)
110-44-1

>  <EINECS> (64)
203-768-7

>  <21 CFR> (64)
133.118, 150.161, 182.3089, 150.141, 166.110, 177.2260, 133.123, 133.124, 133.169, 133.173, 133.179, 133.187, 133.188, 172.872, 181.23

>  <LD50-rat-oral> (64)
7360

>  <Compound classification> (64)
Ali-COOH

>  <Microorganism> (64)
Alternaria sp.

>  <Microorganism classification> (64)
fungi

>  <MIC> (64)
80

>  <Annotation> (64)
MIC: range 80-1000 ppm, pH=3.5-5

>  <Method abbreviation> (64)
SDT

>  <Ref-Nr> (64)
1045

>  <Marker> (64)
0

>  <Method> (64)
Serial dilution tests: review article - methods cited therein; low MIC value was inserted in MIC field, inhibition range given among annotations

>  <Reference> (64)
Rehm, H.-J.: Grenzhemmkonzentrationen der zugelassenen Konservierungsmittel gegen Mikroorganismen; Zeitschrift fuer Lebensmittel-Untersuchung und -Forschung 115, 293 (1961)

>  <mol_id> (64)
203

>  <LD50-mouse-oral> (64)
3200

>  <LD50-mou-ip> (64)
2820

>  <MolWeight> (64)
112.12

>  <Nickname> (64)
Sorbic acid

$$$$

csChmFindW11180110282D

 16 15  0  0  0  0  0  0  0  0999 V2000
    6.1027    3.0562    0.0279 C   0  0  0  0  0  0  0  0  0  0  0  0
    4.5092    2.1912    0.0271 C   0  0  0  0  0  0  0  0  0  0  0  0
    7.5772    2.2467    0.0190 C   0  0  0  0  0  0  0  0  0  0  0  0
    3.0341    3.0022    0.0360 C   0  0  0  0  0  0  0  0  0  0  0  0
    9.2077    3.1183    0.0168 C   0  0  0  0  0  0  0  0  0  0  0  0
    1.4142    2.1499    0.0353 C   0  0  0  0  0  0  0  0  0  0  0  0
    0.0000    2.7838    0.0460 O   0  0  0  0  0  0  0  0  0  0  0  0
    1.4690    0.4367    0.0213 O   0  0  0  0  0  0  0  0  0  0  0  0
    6.0552    4.4386    0.0365 H   0  0  0  0  0  0  0  0  0  0  0  0
    4.5470    0.8050    0.0185 H   0  0  0  0  0  0  0  0  0  0  0  0
    7.6265    0.8648    0.0105 H   0  0  0  0  0  0  0  0  0  0  0  0
    2.9370    4.3803    0.0447 H   0  0  0  0  0  0  0  0  0  0  0  0
   10.2671    2.2031    0.0397 H   0  0  0  0  0  0  0  0  0  0  0  0
    9.3236    3.9541    1.1372 H   0  0  0  0  0  0  0  0  0  0  0  0
    9.3389    3.9139   -1.1311 H   0  0  0  0  0  0  0  0  0  0  0  0
    0.3331    0.0000    0.0221 H   0  0  0  0  0  0  0  0  0  0  0  0
  1  2  1  0  0  0  0
  1  3  2  0  0  0  0
  1  9  1  0  0  0  0
  2  4  2  0  0  0  0
  2 10  1  0  0  0  0
  3  5  1  0  0  0  0
  3 11  1  0  0  0  0
  4  6  1  0  0  0  0
  4 12  1  0  0  0  0
  5 13  1  0  0  0  0
  5 14  1  1  0  0  0
  5 15  1  6  0  0  0
  6  7  2  0  0  0  0
  6  8  1  0  0  0  0
  8 16  1  0  0  0  0
M  END
>  <Formula> (65)
C6H8O2

>  <Name> (65)
(E,E)-2,4-HEXADIENOIC ACID

>  <CAS-Nr> (65)
110-44-1

>  <EINECS> (65)
203-768-7

>  <21 CFR> (65)
133.118, 150.161, 182.3089, 150.141, 166.110, 177.2260, 133.123, 133.124, 133.169, 133.173, 133.179, 133.187, 133.188, 172.872, 181.23

>  <LD50-rat-oral> (65)
7360

>  <Compound classification> (65)
Ali-COOH

>  <Microorganism> (65)
Apiospora montagnei

>  <Publication strain name> (65)
Papularia arundinis

>  <Microorganism classification> (65)
fungi

>  <MIC> (65)
80

>  <Annotation> (65)
MIC: range 80-1000 ppm, pH=3.5-5

>  <Method abbreviation> (65)
SDT

>  <Ref-Nr> (65)
1045

>  <Marker> (65)
0

>  <Method> (65)
Serial dilution tests: review article - methods cited therein; low MIC value was inserted in MIC field, inhibition range given among annotations

>  <Reference> (65)
Rehm, H.-J.: Grenzhemmkonzentrationen der zugelassenen Konservierungsmittel gegen Mikroorganismen; Zeitschrift fuer Lebensmittel-Untersuchung und -Forschung 115, 293 (1961)

>  <mol_id> (65)
203

>  <LD50-mouse-oral> (65)
3200

>  <LD50-mou-ip> (65)
2820

>  <MolWeight> (65)
112.12

>  <Nickname> (65)
Sorbic acid

$$$$

csChmFindW11180110282D

 16 15  0  0  0  0  0  0  0  0999 V2000
    6.1027    3.0562    0.0279 C   0  0  0  0  0  0  0  0  0  0  0  0
    4.5092    2.1912    0.0271 C   0  0  0  0  0  0  0  0  0  0  0  0
    7.5772    2.2467    0.0190 C   0  0  0  0  0  0  0  0  0  0  0  0
    3.0341    3.0022    0.0360 C   0  0  0  0  0  0  0  0  0  0  0  0
    9.2077    3.1183    0.0168 C   0  0  0  0  0  0  0  0  0  0  0  0
    1.4142    2.1499    0.0353 C   0  0  0  0  0  0  0  0  0  0  0  0
    0.0000    2.7838    0.0460 O   0  0  0  0  0  0  0  0  0  0  0  0
    1.4690    0.4367    0.0213 O   0  0  0  0  0  0  0  0  0  0  0  0
    6.0552    4.4386    0.0365 H   0  0  0  0  0  0  0  0  0  0  0  0
    4.5470    0.8050    0.0185 H   0  0  0  0  0  0  0  0  0  0  0  0
    7.6265    0.8648    0.0105 H   0  0  0  0  0  0  0  0  0  0  0  0
    2.9370    4.3803    0.0447 H   0  0  0  0  0  0  0  0  0  0  0  0
   10.2671    2.2031    0.0397 H   0  0  0  0  0  0  0  0  0  0  0  0
    9.3236    3.9541    1.1372 H   0  0  0  0  0  0  0  0  0  0  0  0
    9.3389    3.9139   -1.1311 H   0  0  0  0  0  0  0  0  0  0  0  0
    0.3331    0.0000    0.0221 H   0  0  0  0  0  0  0  0  0  0  0  0
  1  2  1  0  0  0  0
  1  3  2  0  0  0  0
  1  9  1  0  0  0  0
  2  4  2  0  0  0  0
  2 10  1  0  0  0  0
  3  5  1  0  0  0  0
  3 11  1  0  0  0  0
  4  6  1  0  0  0  0
  4 12  1  0  0  0  0
  5 13  1  0  0  0  0
  5 14  1  1  0  0  0
  5 15  1  6  0  0  0
  6  7  2  0  0  0  0
  6  8  1  0  0  0  0
  8 16  1  0  0  0  0
M  END
>  <Formula> (66)
C6H8O2

>  <Name> (66)
(E,E)-2,4-HEXADIENOIC ACID

>  <CAS-Nr> (66)
110-44-1

>  <EINECS> (66)
203-768-7

>  <21 CFR> (66)
133.118, 150.161, 182.3089, 150.141, 166.110, 177.2260, 133.123, 133.124, 133.169, 133.173, 133.179, 133.187, 133.188, 172.872, 181.23

>  <LD50-rat-oral> (66)
7360

>  <Compound classification> (66)
Ali-COOH

>  <Microorganism> (66)
Ascochyta cucumeris

>  <Microorganism classification> (66)
fungi

>  <MIC> (66)
250

>  <Annotation> (66)
MIC: range <250-<1000 ppm, pH=3.3-4.5

>  <Method abbreviation> (66)
SDT

>  <Ref-Nr> (66)
1045

>  <Marker> (66)
0

>  <Method> (66)
Serial dilution tests: review article - methods cited therein; low MIC value was inserted in MIC field, inhibition range given among annotations

>  <Reference> (66)
Rehm, H.-J.: Grenzhemmkonzentrationen der zugelassenen Konservierungsmittel gegen Mikroorganismen; Zeitschrift fuer Lebensmittel-Untersuchung und -Forschung 115, 293 (1961)

>  <mol_id> (66)
203

>  <LD50-mouse-oral> (66)
3200

>  <LD50-mou-ip> (66)
2820

>  <MolWeight> (66)
112.12

>  <Nickname> (66)
Sorbic acid

$$$$

csChmFindW11180110282D

 16 15  0  0  0  0  0  0  0  0999 V2000
    6.1027    3.0562    0.0279 C   0  0  0  0  0  0  0  0  0  0  0  0
    4.5092    2.1912    0.0271 C   0  0  0  0  0  0  0  0  0  0  0  0
    7.5772    2.2467    0.0190 C   0  0  0  0  0  0  0  0  0  0  0  0
    3.0341    3.0022    0.0360 C   0  0  0  0  0  0  0  0  0  0  0  0
    9.2077    3.1183    0.0168 C   0  0  0  0  0  0  0  0  0  0  0  0
    1.4142    2.1499    0.0353 C   0  0  0  0  0  0  0  0  0  0  0  0
    0.0000    2.7838    0.0460 O   0  0  0  0  0  0  0  0  0  0  0  0
    1.4690    0.4367    0.0213 O   0  0  0  0  0  0  0  0  0  0  0  0
    6.0552    4.4386    0.0365 H   0  0  0  0  0  0  0  0  0  0  0  0
    4.5470    0.8050    0.0185 H   0  0  0  0  0  0  0  0  0  0  0  0
    7.6265    0.8648    0.0105 H   0  0  0  0  0  0  0  0  0  0  0  0
    2.9370    4.3803    0.0447 H   0  0  0  0  0  0  0  0  0  0  0  0
   10.2671    2.2031    0.0397 H   0  0  0  0  0  0  0  0  0  0  0  0
    9.3236    3.9541    1.1372 H   0  0  0  0  0  0  0  0  0  0  0  0
    9.3389    3.9139   -1.1311 H   0  0  0  0  0  0  0  0  0  0  0  0
    0.3331    0.0000    0.0221 H   0  0  0  0  0  0  0  0  0  0  0  0
  1  2  1  0  0  0  0
  1  3  2  0  0  0  0
  1  9  1  0  0  0  0
  2  4  2  0  0  0  0
  2 10  1  0  0  0  0
  3  5  1  0  0  0  0
  3 11  1  0  0  0  0
  4  6  1  0  0  0  0
  4 12  1  0  0  0  0
  5 13  1  0  0  0  0
  5 14  1  1  0  0  0
  5 15  1  6  0  0  0
  6  7  2  0  0  0  0
  6  8  1  0  0  0  0
  8 16  1  0  0  0  0
M  END
>  <Formula> (67)
C6H8O2

>  <Name> (67)
(E,E)-2,4-HEXADIENOIC ACID

>  <CAS-Nr> (67)
110-44-1

>  <EINECS> (67)
203-768-7

>  <21 CFR> (67)
133.118, 150.161, 182.3089, 150.141, 166.110, 177.2260, 133.123, 133.124, 133.169, 133.173, 133.179, 133.187, 133.188, 172.872, 181.23

>  <LD50-rat-oral> (67)
7360

>  <Compound classification> (67)
Ali-COOH

>  <Microorganism> (67)
Ascochyta sp.

>  <Microorganism classification> (67)
fungi

>  <MIC> (67)
250

>  <Annotation> (67)
MIC: range <250-<1000 ppm, pH=3.3-4.5

>  <Method abbreviation> (67)
SDT

>  <Ref-Nr> (67)
1045

>  <Marker> (67)
0

>  <Method> (67)
Serial dilution tests: review article - methods cited therein; low MIC value was inserted in MIC field, inhibition range given among annotations

>  <Reference> (67)
Rehm, H.-J.: Grenzhemmkonzentrationen der zugelassenen Konservierungsmittel gegen Mikroorganismen; Zeitschrift fuer Lebensmittel-Untersuchung und -Forschung 115, 293 (1961)

>  <mol_id> (67)
203

>  <LD50-mouse-oral> (67)
3200

>  <LD50-mou-ip> (67)
2820

>  <MolWeight> (67)
112.12

>  <Nickname> (67)
Sorbic acid

$$$$

csChmFindW11180110282D

 16 15  0  0  0  0  0  0  0  0999 V2000
    6.1027    3.0562    0.0279 C   0  0  0  0  0  0  0  0  0  0  0  0
    4.5092    2.1912    0.0271 C   0  0  0  0  0  0  0  0  0  0  0  0
    7.5772    2.2467    0.0190 C   0  0  0  0  0  0  0  0  0  0  0  0
    3.0341    3.0022    0.0360 C   0  0  0  0  0  0  0  0  0  0  0  0
    9.2077    3.1183    0.0168 C   0  0  0  0  0  0  0  0  0  0  0  0
    1.4142    2.1499    0.0353 C   0  0  0  0  0  0  0  0  0  0  0  0
    0.0000    2.7838    0.0460 O   0  0  0  0  0  0  0  0  0  0  0  0
    1.4690    0.4367    0.0213 O   0  0  0  0  0  0  0  0  0  0  0  0
    6.0552    4.4386    0.0365 H   0  0  0  0  0  0  0  0  0  0  0  0
    4.5470    0.8050    0.0185 H   0  0  0  0  0  0  0  0  0  0  0  0
    7.6265    0.8648    0.0105 H   0  0  0  0  0  0  0  0  0  0  0  0
    2.9370    4.3803    0.0447 H   0  0  0  0  0  0  0  0  0  0  0  0
   10.2671    2.2031    0.0397 H   0  0  0  0  0  0  0  0  0  0  0  0
    9.3236    3.9541    1.1372 H   0  0  0  0  0  0  0  0  0  0  0  0
    9.3389    3.9139   -1.1311 H   0  0  0  0  0  0  0  0  0  0  0  0
    0.3331    0.0000    0.0221 H   0  0  0  0  0  0  0  0  0  0  0  0
  1  2  1  0  0  0  0
  1  3  2  0  0  0  0
  1  9  1  0  0  0  0
  2  4  2  0  0  0  0
  2 10  1  0  0  0  0
  3  5  1  0  0  0  0
  3 11  1  0  0  0  0
  4  6  1  0  0  0  0
  4 12  1  0  0  0  0
  5 13  1  0  0  0  0
  5 14  1  1  0  0  0
  5 15  1  6  0  0  0
  6  7  2  0  0  0  0
  6  8  1  0  0  0  0
  8 16  1  0  0  0  0
M  END
>  <Formula> (68)
C6H8O2

>  <Name> (68)
(E,E)-2,4-HEXADIENOIC ACID

>  <CAS-Nr> (68)
110-44-1

>  <EINECS> (68)
203-768-7

>  <21 CFR> (68)
133.118, 150.161, 182.3089, 150.141, 166.110, 177.2260, 133.123, 133.124, 133.169, 133.173, 133.179, 133.187, 133.188, 172.872, 181.23

>  <LD50-rat-oral> (68)
7360

>  <Compound classification> (68)
Ali-COOH

>  <Microorganism> (68)
Aspergillus amstelodami

>  <Publication strain name> (68)
Aspergillus glaucus

>  <Microorganism classification> (68)
fungi

>  <MIC> (68)
1000

>  <Annotation> (68)
MIC: range >1000-2000 ppm, pH=4-7

>  <Method abbreviation> (68)
SDT

>  <Ref-Nr> (68)
1045

>  <Marker> (68)
0

>  <Method> (68)
Serial dilution tests: review article - methods cited therein; low MIC value was inserted in MIC field, inhibition range given among annotations

>  <Reference> (68)
Rehm, H.-J.: Grenzhemmkonzentrationen der zugelassenen Konservierungsmittel gegen Mikroorganismen; Zeitschrift fuer Lebensmittel-Untersuchung und -Forschung 115, 293 (1961)

>  <mol_id> (68)
203

>  <LD50-mouse-oral> (68)
3200

>  <LD50-mou-ip> (68)
2820

>  <MolWeight> (68)
112.12

>  <Nickname> (68)
Sorbic acid

$$$$

csChmFindW11180110282D

 16 15  0  0  0  0  0  0  0  0999 V2000
    6.1027    3.0562    0.0279 C   0  0  0  0  0  0  0  0  0  0  0  0
    4.5092    2.1912    0.0271 C   0  0  0  0  0  0  0  0  0  0  0  0
    7.5772    2.2467    0.0190 C   0  0  0  0  0  0  0  0  0  0  0  0
    3.0341    3.0022    0.0360 C   0  0  0  0  0  0  0  0  0  0  0  0
    9.2077    3.1183    0.0168 C   0  0  0  0  0  0  0  0  0  0  0  0
    1.4142    2.1499    0.0353 C   0  0  0  0  0  0  0  0  0  0  0  0
    0.0000    2.7838    0.0460 O   0  0  0  0  0  0  0  0  0  0  0  0
    1.4690    0.4367    0.0213 O   0  0  0  0  0  0  0  0  0  0  0  0
    6.0552    4.4386    0.0365 H   0  0  0  0  0  0  0  0  0  0  0  0
    4.5470    0.8050    0.0185 H   0  0  0  0  0  0  0  0  0  0  0  0
    7.6265    0.8648    0.0105 H   0  0  0  0  0  0  0  0  0  0  0  0
    2.9370    4.3803    0.0447 H   0  0  0  0  0  0  0  0  0  0  0  0
   10.2671    2.2031    0.0397 H   0  0  0  0  0  0  0  0  0  0  0  0
    9.3236    3.9541    1.1372 H   0  0  0  0  0  0  0  0  0  0  0  0
    9.3389    3.9139   -1.1311 H   0  0  0  0  0  0  0  0  0  0  0  0
    0.3331    0.0000    0.0221 H   0  0  0  0  0  0  0  0  0  0  0  0
  1  2  1  0  0  0  0
  1  3  2  0  0  0  0
  1  9  1  0  0  0  0
  2  4  2  0  0  0  0
  2 10  1  0  0  0  0
  3  5  1  0  0  0  0
  3 11  1  0  0  0  0
  4  6  1  0  0  0  0
  4 12  1  0  0  0  0
  5 13  1  0  0  0  0
  5 14  1  1  0  0  0
  5 15  1  6  0  0  0
  6  7  2  0  0  0  0
  6  8  1  0  0  0  0
  8 16  1  0  0  0  0
M  END
>  <Formula> (69)
C6H8O2

>  <Name> (69)
(E,E)-2,4-HEXADIENOIC ACID

>  <CAS-Nr> (69)
110-44-1

>  <EINECS> (69)
203-768-7

>  <21 CFR> (69)
133.118, 150.161, 182.3089, 150.141, 166.110, 177.2260, 133.123, 133.124, 133.169, 133.173, 133.179, 133.187, 133.188, 172.872, 181.23

>  <LD50-rat-oral> (69)
7360

>  <Compound classification> (69)
Ali-COOH

>  <Microorganism> (69)
Aspergillus candidus

>  <Microorganism classification> (69)
fungi

>  <MIC> (69)
200

>  <Annotation> (69)
MIC: range 200-1000 ppm, pH=4.5-5

>  <Method abbreviation> (69)
SDT

>  <Ref-Nr> (69)
1045

>  <Marker> (69)
0

>  <Method> (69)
Serial dilution tests: review article - methods cited therein; low MIC value was inserted in MIC field, inhibition range given among annotations

>  <Reference> (69)
Rehm, H.-J.: Grenzhemmkonzentrationen der zugelassenen Konservierungsmittel gegen Mikroorganismen; Zeitschrift fuer Lebensmittel-Untersuchung und -Forschung 115, 293 (1961)

>  <mol_id> (69)
203

>  <LD50-mouse-oral> (69)
3200

>  <LD50-mou-ip> (69)
2820

>  <MolWeight> (69)
112.12

>  <Nickname> (69)
Sorbic acid

$$$$

csChmFindW11180110282D

 16 15  0  0  0  0  0  0  0  0999 V2000
    6.1027    3.0562    0.0279 C   0  0  0  0  0  0  0  0  0  0  0  0
    4.5092    2.1912    0.0271 C   0  0  0  0  0  0  0  0  0  0  0  0
    7.5772    2.2467    0.0190 C   0  0  0  0  0  0  0  0  0  0  0  0
    3.0341    3.0022    0.0360 C   0  0  0  0  0  0  0  0  0  0  0  0
    9.2077    3.1183    0.0168 C   0  0  0  0  0  0  0  0  0  0  0  0
    1.4142    2.1499    0.0353 C   0  0  0  0  0  0  0  0  0  0  0  0
    0.0000    2.7838    0.0460 O   0  0  0  0  0  0  0  0  0  0  0  0
    1.4690    0.4367    0.0213 O   0  0  0  0  0  0  0  0  0  0  0  0
    6.0552    4.4386    0.0365 H   0  0  0  0  0  0  0  0  0  0  0  0
    4.5470    0.8050    0.0185 H   0  0  0  0  0  0  0  0  0  0  0  0
    7.6265    0.8648    0.0105 H   0  0  0  0  0  0  0  0  0  0  0  0
    2.9370    4.3803    0.0447 H   0  0  0  0  0  0  0  0  0  0  0  0
   10.2671    2.2031    0.0397 H   0  0  0  0  0  0  0  0  0  0  0  0
    9.3236    3.9541    1.1372 H   0  0  0  0  0  0  0  0  0  0  0  0
    9.3389    3.9139   -1.1311 H   0  0  0  0  0  0  0  0  0  0  0  0
    0.3331    0.0000    0.0221 H   0  0  0  0  0  0  0  0  0  0  0  0
  1  2  1  0  0  0  0
  1  3  2  0  0  0  0
  1  9  1  0  0  0  0
  2  4  2  0  0  0  0
  2 10  1  0  0  0  0
  3  5  1  0  0  0  0
  3 11  1  0  0  0  0
  4  6  1  0  0  0  0
  4 12  1  0  0  0  0
  5 13  1  0  0  0  0
  5 14  1  1  0  0  0
  5 15  1  6  0  0  0
  6  7  2  0  0  0  0
  6  8  1  0  0  0  0
  8 16  1  0  0  0  0
M  END
>  <Formula> (70)
C6H8O2

>  <Name> (70)
(E,E)-2,4-HEXADIENOIC ACID

>  <CAS-Nr> (70)
110-44-1

>  <EINECS> (70)
203-768-7

>  <21 CFR> (70)
133.118, 150.161, 182.3089, 150.141, 166.110, 177.2260, 133.123, 133.124, 133.169, 133.173, 133.179, 133.187, 133.188, 172.872, 181.23

>  <LD50-rat-oral> (70)
7360

>  <Compound classification> (70)
Ali-COOH

>  <Microorganism> (70)
Aspergillus chlamydosporii

>  <Microorganism classification> (70)
fungi

>  <MIC> (70)
200

>  <Annotation> (70)
MIC: range 200-1000 ppm, pH=4.5-5

>  <Method abbreviation> (70)
SDT

>  <Ref-Nr> (70)
1045

>  <Marker> (70)
0

>  <Method> (70)
Serial dilution tests: review article - methods cited therein; low MIC value was inserted in MIC field, inhibition range given among annotations

>  <Reference> (70)
Rehm, H.-J.: Grenzhemmkonzentrationen der zugelassenen Konservierungsmittel gegen Mikroorganismen; Zeitschrift fuer Lebensmittel-Untersuchung und -Forschung 115, 293 (1961)

>  <mol_id> (70)
203

>  <LD50-mouse-oral> (70)
3200

>  <LD50-mou-ip> (70)
2820

>  <MolWeight> (70)
112.12

>  <Nickname> (70)
Sorbic acid

$$$$

csChmFindW11180110282D

 16 15  0  0  0  0  0  0  0  0999 V2000
    6.1027    3.0562    0.0279 C   0  0  0  0  0  0  0  0  0  0  0  0
    4.5092    2.1912    0.0271 C   0  0  0  0  0  0  0  0  0  0  0  0
    7.5772    2.2467    0.0190 C   0  0  0  0  0  0  0  0  0  0  0  0
    3.0341    3.0022    0.0360 C   0  0  0  0  0  0  0  0  0  0  0  0
    9.2077    3.1183    0.0168 C   0  0  0  0  0  0  0  0  0  0  0  0
    1.4142    2.1499    0.0353 C   0  0  0  0  0  0  0  0  0  0  0  0
    0.0000    2.7838    0.0460 O   0  0  0  0  0  0  0  0  0  0  0  0
    1.4690    0.4367    0.0213 O   0  0  0  0  0  0  0  0  0  0  0  0
    6.0552    4.4386    0.0365 H   0  0  0  0  0  0  0  0  0  0  0  0
    4.5470    0.8050    0.0185 H   0  0  0  0  0  0  0  0  0  0  0  0
    7.6265    0.8648    0.0105 H   0  0  0  0  0  0  0  0  0  0  0  0
    2.9370    4.3803    0.0447 H   0  0  0  0  0  0  0  0  0  0  0  0
   10.2671    2.2031    0.0397 H   0  0  0  0  0  0  0  0  0  0  0  0
    9.3236    3.9541    1.1372 H   0  0  0  0  0  0  0  0  0  0  0  0
    9.3389    3.9139   -1.1311 H   0  0  0  0  0  0  0  0  0  0  0  0
    0.3331    0.0000    0.0221 H   0  0  0  0  0  0  0  0  0  0  0  0
  1  2  1  0  0  0  0
  1  3  2  0  0  0  0
  1  9  1  0  0  0  0
  2  4  2  0  0  0  0
  2 10  1  0  0  0  0
  3  5  1  0  0  0  0
  3 11  1  0  0  0  0
  4  6  1  0  0  0  0
  4 12  1  0  0  0  0
  5 13  1  0  0  0  0
  5 14  1  1  0  0  0
  5 15  1  6  0  0  0
  6  7  2  0  0  0  0
  6  8  1  0  0  0  0
  8 16  1  0  0  0  0
M  END
>  <Formula> (71)
C6H8O2

>  <Name> (71)
(E,E)-2,4-HEXADIENOIC ACID

>  <CAS-Nr> (71)
110-44-1

>  <EINECS> (71)
203-768-7

>  <21 CFR> (71)
133.118, 150.161, 182.3089, 150.141, 166.110, 177.2260, 133.123, 133.124, 133.169, 133.173, 133.179, 133.187, 133.188, 172.872, 181.23

>  <LD50-rat-oral> (71)
7360

>  <Compound classification> (71)
Ali-COOH

>  <Microorganism> (71)
Aspergillus elegans

>  <Microorganism classification> (71)
fungi

>  <MIC> (71)
200

>  <Annotation> (71)
MIC: range 200-1000 ppm, pH=4.5-5

>  <Method abbreviation> (71)
SDT

>  <Ref-Nr> (71)
1045

>  <Marker> (71)
0

>  <Method> (71)
Serial dilution tests: review article - methods cited therein; low MIC value was inserted in MIC field, inhibition range given among annotations

>  <Reference> (71)
Rehm, H.-J.: Grenzhemmkonzentrationen der zugelassenen Konservierungsmittel gegen Mikroorganismen; Zeitschrift fuer Lebensmittel-Untersuchung und -Forschung 115, 293 (1961)

>  <mol_id> (71)
203

>  <LD50-mouse-oral> (71)
3200

>  <LD50-mou-ip> (71)
2820

>  <MolWeight> (71)
112.12

>  <Nickname> (71)
Sorbic acid

$$$$

csChmFindW11180110282D

 16 15  0  0  0  0  0  0  0  0999 V2000
    6.1027    3.0562    0.0279 C   0  0  0  0  0  0  0  0  0  0  0  0
    4.5092    2.1912    0.0271 C   0  0  0  0  0  0  0  0  0  0  0  0
    7.5772    2.2467    0.0190 C   0  0  0  0  0  0  0  0  0  0  0  0
    3.0341    3.0022    0.0360 C   0  0  0  0  0  0  0  0  0  0  0  0
    9.2077    3.1183    0.0168 C   0  0  0  0  0  0  0  0  0  0  0  0
    1.4142    2.1499    0.0353 C   0  0  0  0  0  0  0  0  0  0  0  0
    0.0000    2.7838    0.0460 O   0  0  0  0  0  0  0  0  0  0  0  0
    1.4690    0.4367    0.0213 O   0  0  0  0  0  0  0  0  0  0  0  0
    6.0552    4.4386    0.0365 H   0  0  0  0  0  0  0  0  0  0  0  0
    4.5470    0.8050    0.0185 H   0  0  0  0  0  0  0  0  0  0  0  0
    7.6265    0.8648    0.0105 H   0  0  0  0  0  0  0  0  0  0  0  0
    2.9370    4.3803    0.0447 H   0  0  0  0  0  0  0  0  0  0  0  0
   10.2671    2.2031    0.0397 H   0  0  0  0  0  0  0  0  0  0  0  0
    9.3236    3.9541    1.1372 H   0  0  0  0  0  0  0  0  0  0  0  0
    9.3389    3.9139   -1.1311 H   0  0  0  0  0  0  0  0  0  0  0  0
    0.3331    0.0000    0.0221 H   0  0  0  0  0  0  0  0  0  0  0  0
  1  2  1  0  0  0  0
  1  3  2  0  0  0  0
  1  9  1  0  0  0  0
  2  4  2  0  0  0  0
  2 10  1  0  0  0  0
  3  5  1  0  0  0  0
  3 11  1  0  0  0  0
  4  6  1  0  0  0  0
  4 12  1  0  0  0  0
  5 13  1  0  0  0  0
  5 14  1  1  0  0  0
  5 15  1  6  0  0  0
  6  7  2  0  0  0  0
  6  8  1  0  0  0  0
  8 16  1  0  0  0  0
M  END
>  <Formula> (72)
C6H8O2

>  <Name> (72)
(E,E)-2,4-HEXADIENOIC ACID

>  <CAS-Nr> (72)
110-44-1

>  <EINECS> (72)
203-768-7

>  <21 CFR> (72)
133.118, 150.161, 182.3089, 150.141, 166.110, 177.2260, 133.123, 133.124, 133.169, 133.173, 133.179, 133.187, 133.188, 172.872, 181.23

>  <LD50-rat-oral> (72)
7360

>  <Compound classification> (72)
Ali-COOH

>  <Microorganism> (72)
Aspergillus flavus

>  <Microorganism classification> (72)
fungi

>  <MIC> (72)
200

>  <Annotation> (72)
MIC: range 200-1000 ppm, pH=4.5-5

>  <Method abbreviation> (72)
SDT

>  <Ref-Nr> (72)
1045

>  <Marker> (72)
0

>  <Method> (72)
Serial dilution tests: review article - methods cited therein; low MIC value was inserted in MIC field, inhibition range given among annotations

>  <Reference> (72)
Rehm, H.-J.: Grenzhemmkonzentrationen der zugelassenen Konservierungsmittel gegen Mikroorganismen; Zeitschrift fuer Lebensmittel-Untersuchung und -Forschung 115, 293 (1961)

>  <mol_id> (72)
203

>  <LD50-mouse-oral> (72)
3200

>  <LD50-mou-ip> (72)
2820

>  <MolWeight> (72)
112.12

>  <Nickname> (72)
Sorbic acid

$$$$

csChmFindW11180110282D

 16 15  0  0  0  0  0  0  0  0999 V2000
    6.1027    3.0562    0.0279 C   0  0  0  0  0  0  0  0  0  0  0  0
    4.5092    2.1912    0.0271 C   0  0  0  0  0  0  0  0  0  0  0  0
    7.5772    2.2467    0.0190 C   0  0  0  0  0  0  0  0  0  0  0  0
    3.0341    3.0022    0.0360 C   0  0  0  0  0  0  0  0  0  0  0  0
    9.2077    3.1183    0.0168 C   0  0  0  0  0  0  0  0  0  0  0  0
    1.4142    2.1499    0.0353 C   0  0  0  0  0  0  0  0  0  0  0  0
    0.0000    2.7838    0.0460 O   0  0  0  0  0  0  0  0  0  0  0  0
    1.4690    0.4367    0.0213 O   0  0  0  0  0  0  0  0  0  0  0  0
    6.0552    4.4386    0.0365 H   0  0  0  0  0  0  0  0  0  0  0  0
    4.5470    0.8050    0.0185 H   0  0  0  0  0  0  0  0  0  0  0  0
    7.6265    0.8648    0.0105 H   0  0  0  0  0  0  0  0  0  0  0  0
    2.9370    4.3803    0.0447 H   0  0  0  0  0  0  0  0  0  0  0  0
   10.2671    2.2031    0.0397 H   0  0  0  0  0  0  0  0  0  0  0  0
    9.3236    3.9541    1.1372 H   0  0  0  0  0  0  0  0  0  0  0  0
    9.3389    3.9139   -1.1311 H   0  0  0  0  0  0  0  0  0  0  0  0
    0.3331    0.0000    0.0221 H   0  0  0  0  0  0  0  0  0  0  0  0
  1  2  1  0  0  0  0
  1  3  2  0  0  0  0
  1  9  1  0  0  0  0
  2  4  2  0  0  0  0
  2 10  1  0  0  0  0
  3  5  1  0  0  0  0
  3 11  1  0  0  0  0
  4  6  1  0  0  0  0
  4 12  1  0  0  0  0
  5 13  1  0  0  0  0
  5 14  1  1  0  0  0
  5 15  1  6  0  0  0
  6  7  2  0  0  0  0
  6  8  1  0  0  0  0
  8 16  1  0  0  0  0
M  END
>  <Formula> (73)
C6H8O2

>  <Name> (73)
(E,E)-2,4-HEXADIENOIC ACID

>  <CAS-Nr> (73)
110-44-1

>  <EINECS> (73)
203-768-7

>  <21 CFR> (73)
133.118, 150.161, 182.3089, 150.141, 166.110, 177.2260, 133.123, 133.124, 133.169, 133.173, 133.179, 133.187, 133.188, 172.872, 181.23

>  <LD50-rat-oral> (73)
7360

>  <Compound classification> (73)
Ali-COOH

>  <Microorganism> (73)
Aspergillus flavus

>  <Microorganism classification> (73)
fungi

>  <MIC> (73)
200

>  <Annotation> (73)
MIC: <200 ppm

>  <Method abbreviation> (73)
SDT

>  <Ref-Nr> (73)
1045

>  <Marker> (73)
0

>  <Method> (73)
Serial dilution tests: review article - methods cited therein; low MIC value was inserted in MIC field, inhibition range given among annotations

>  <Reference> (73)
Rehm, H.-J.: Grenzhemmkonzentrationen der zugelassenen Konservierungsmittel gegen Mikroorganismen; Zeitschrift fuer Lebensmittel-Untersuchung und -Forschung 115, 293 (1961)

>  <mol_id> (73)
203

>  <LD50-mouse-oral> (73)
3200

>  <LD50-mou-ip> (73)
2820

>  <MolWeight> (73)
112.12

>  <Nickname> (73)
Sorbic acid

$$$$

csChmFindW11180110282D

 16 15  0  0  0  0  0  0  0  0999 V2000
    6.1027    3.0562    0.0279 C   0  0  0  0  0  0  0  0  0  0  0  0
    4.5092    2.1912    0.0271 C   0  0  0  0  0  0  0  0  0  0  0  0
    7.5772    2.2467    0.0190 C   0  0  0  0  0  0  0  0  0  0  0  0
    3.0341    3.0022    0.0360 C   0  0  0  0  0  0  0  0  0  0  0  0
    9.2077    3.1183    0.0168 C   0  0  0  0  0  0  0  0  0  0  0  0
    1.4142    2.1499    0.0353 C   0  0  0  0  0  0  0  0  0  0  0  0
    0.0000    2.7838    0.0460 O   0  0  0  0  0  0  0  0  0  0  0  0
    1.4690    0.4367    0.0213 O   0  0  0  0  0  0  0  0  0  0  0  0
    6.0552    4.4386    0.0365 H   0  0  0  0  0  0  0  0  0  0  0  0
    4.5470    0.8050    0.0185 H   0  0  0  0  0  0  0  0  0  0  0  0
    7.6265    0.8648    0.0105 H   0  0  0  0  0  0  0  0  0  0  0  0
    2.9370    4.3803    0.0447 H   0  0  0  0  0  0  0  0  0  0  0  0
   10.2671    2.2031    0.0397 H   0  0  0  0  0  0  0  0  0  0  0  0
    9.3236    3.9541    1.1372 H   0  0  0  0  0  0  0  0  0  0  0  0
    9.3389    3.9139   -1.1311 H   0  0  0  0  0  0  0  0  0  0  0  0
    0.3331    0.0000    0.0221 H   0  0  0  0  0  0  0  0  0  0  0  0
  1  2  1  0  0  0  0
  1  3  2  0  0  0  0
  1  9  1  0  0  0  0
  2  4  2  0  0  0  0
  2 10  1  0  0  0  0
  3  5  1  0  0  0  0
  3 11  1  0  0  0  0
  4  6  1  0  0  0  0
  4 12  1  0  0  0  0
  5 13  1  0  0  0  0
  5 14  1  1  0  0  0
  5 15  1  6  0  0  0
  6  7  2  0  0  0  0
  6  8  1  0  0  0  0
  8 16  1  0  0  0  0
M  END
>  <Formula> (74)
C6H8O2

>  <Name> (74)
(E,E)-2,4-HEXADIENOIC ACID

>  <CAS-Nr> (74)
110-44-1

>  <EINECS> (74)
203-768-7

>  <21 CFR> (74)
133.118, 150.161, 182.3089, 150.141, 166.110, 177.2260, 133.123, 133.124, 133.169, 133.173, 133.179, 133.187, 133.188, 172.872, 181.23

>  <LD50-rat-oral> (74)
7360

>  <Compound classification> (74)
Ali-COOH

>  <Microorganism> (74)
Aspergillus fumigatus

>  <Microorganism classification> (74)
fungi

>  <MIC> (74)
200

>  <Annotation> (74)
MIC: range 200-1000 ppm, pH=4.5-5

>  <Method abbreviation> (74)
SDT

>  <Ref-Nr> (74)
1045

>  <Marker> (74)
0

>  <Method> (74)
Serial dilution tests: review article - methods cited therein; low MIC value was inserted in MIC field, inhibition range given among annotations

>  <Reference> (74)
Rehm, H.-J.: Grenzhemmkonzentrationen der zugelassenen Konservierungsmittel gegen Mikroorganismen; Zeitschrift fuer Lebensmittel-Untersuchung und -Forschung 115, 293 (1961)

>  <mol_id> (74)
203

>  <LD50-mouse-oral> (74)
3200

>  <LD50-mou-ip> (74)
2820

>  <MolWeight> (74)
112.12

>  <Nickname> (74)
Sorbic acid

$$$$

csChmFindW11180110282D

 16 15  0  0  0  0  0  0  0  0999 V2000
    6.1027    3.0562    0.0279 C   0  0  0  0  0  0  0  0  0  0  0  0
    4.5092    2.1912    0.0271 C   0  0  0  0  0  0  0  0  0  0  0  0
    7.5772    2.2467    0.0190 C   0  0  0  0  0  0  0  0  0  0  0  0
    3.0341    3.0022    0.0360 C   0  0  0  0  0  0  0  0  0  0  0  0
    9.2077    3.1183    0.0168 C   0  0  0  0  0  0  0  0  0  0  0  0
    1.4142    2.1499    0.0353 C   0  0  0  0  0  0  0  0  0  0  0  0
    0.0000    2.7838    0.0460 O   0  0  0  0  0  0  0  0  0  0  0  0
    1.4690    0.4367    0.0213 O   0  0  0  0  0  0  0  0  0  0  0  0
    6.0552    4.4386    0.0365 H   0  0  0  0  0  0  0  0  0  0  0  0
    4.5470    0.8050    0.0185 H   0  0  0  0  0  0  0  0  0  0  0  0
    7.6265    0.8648    0.0105 H   0  0  0  0  0  0  0  0  0  0  0  0
    2.9370    4.3803    0.0447 H   0  0  0  0  0  0  0  0  0  0  0  0
   10.2671    2.2031    0.0397 H   0  0  0  0  0  0  0  0  0  0  0  0
    9.3236    3.9541    1.1372 H   0  0  0  0  0  0  0  0  0  0  0  0
    9.3389    3.9139   -1.1311 H   0  0  0  0  0  0  0  0  0  0  0  0
    0.3331    0.0000    0.0221 H   0  0  0  0  0  0  0  0  0  0  0  0
  1  2  1  0  0  0  0
  1  3  2  0  0  0  0
  1  9  1  0  0  0  0
  2  4  2  0  0  0  0
  2 10  1  0  0  0  0
  3  5  1  0  0  0  0
  3 11  1  0  0  0  0
  4  6  1  0  0  0  0
  4 12  1  0  0  0  0
  5 13  1  0  0  0  0
  5 14  1  1  0  0  0
  5 15  1  6  0  0  0
  6  7  2  0  0  0  0
  6  8  1  0  0  0  0
  8 16  1  0  0  0  0
M  END
>  <Formula> (75)
C6H8O2

>  <Name> (75)
(E,E)-2,4-HEXADIENOIC ACID

>  <CAS-Nr> (75)
110-44-1

>  <EINECS> (75)
203-768-7

>  <21 CFR> (75)
133.118, 150.161, 182.3089, 150.141, 166.110, 177.2260, 133.123, 133.124, 133.169, 133.173, 133.179, 133.187, 133.188, 172.872, 181.23

>  <LD50-rat-oral> (75)
7360

>  <Compound classification> (75)
Ali-COOH

>  <Microorganism> (75)
Aspergillus niger

>  <Microorganism classification> (75)
fungi

>  <MIC> (75)
200

>  <Annotation> (75)
MIC: <200 ppm

>  <Method abbreviation> (75)
SDT

>  <Ref-Nr> (75)
1045

>  <Marker> (75)
0

>  <Method> (75)
Serial dilution tests: review article - methods cited therein; low MIC value was inserted in MIC field, inhibition range given among annotations

>  <Reference> (75)
Rehm, H.-J.: Grenzhemmkonzentrationen der zugelassenen Konservierungsmittel gegen Mikroorganismen; Zeitschrift fuer Lebensmittel-Untersuchung und -Forschung 115, 293 (1961)

>  <mol_id> (75)
203

>  <LD50-mouse-oral> (75)
3200

>  <LD50-mou-ip> (75)
2820

>  <MolWeight> (75)
112.12

>  <Nickname> (75)
Sorbic acid

$$$$

csChmFindW11180110282D

 16 15  0  0  0  0  0  0  0  0999 V2000
    6.1027    3.0562    0.0279 C   0  0  0  0  0  0  0  0  0  0  0  0
    4.5092    2.1912    0.0271 C   0  0  0  0  0  0  0  0  0  0  0  0
    7.5772    2.2467    0.0190 C   0  0  0  0  0  0  0  0  0  0  0  0
    3.0341    3.0022    0.0360 C   0  0  0  0  0  0  0  0  0  0  0  0
    9.2077    3.1183    0.0168 C   0  0  0  0  0  0  0  0  0  0  0  0
    1.4142    2.1499    0.0353 C   0  0  0  0  0  0  0  0  0  0  0  0
    0.0000    2.7838    0.0460 O   0  0  0  0  0  0  0  0  0  0  0  0
    1.4690    0.4367    0.0213 O   0  0  0  0  0  0  0  0  0  0  0  0
    6.0552    4.4386    0.0365 H   0  0  0  0  0  0  0  0  0  0  0  0
    4.5470    0.8050    0.0185 H   0  0  0  0  0  0  0  0  0  0  0  0
    7.6265    0.8648    0.0105 H   0  0  0  0  0  0  0  0  0  0  0  0
    2.9370    4.3803    0.0447 H   0  0  0  0  0  0  0  0  0  0  0  0
   10.2671    2.2031    0.0397 H   0  0  0  0  0  0  0  0  0  0  0  0
    9.3236    3.9541    1.1372 H   0  0  0  0  0  0  0  0  0  0  0  0
    9.3389    3.9139   -1.1311 H   0  0  0  0  0  0  0  0  0  0  0  0
    0.3331    0.0000    0.0221 H   0  0  0  0  0  0  0  0  0  0  0  0
  1  2  1  0  0  0  0
  1  3  2  0  0  0  0
  1  9  1  0  0  0  0
  2  4  2  0  0  0  0
  2 10  1  0  0  0  0
  3  5  1  0  0  0  0
  3 11  1  0  0  0  0
  4  6  1  0  0  0  0
  4 12  1  0  0  0  0
  5 13  1  0  0  0  0
  5 14  1  1  0  0  0
  5 15  1  6  0  0  0
  6  7  2  0  0  0  0
  6  8  1  0  0  0  0
  8 16  1  0  0  0  0
M  END
>  <Formula> (76)
C6H8O2

>  <Name> (76)
(E,E)-2,4-HEXADIENOIC ACID

>  <CAS-Nr> (76)
110-44-1

>  <EINECS> (76)
203-768-7

>  <21 CFR> (76)
133.118, 150.161, 182.3089, 150.141, 166.110, 177.2260, 133.123, 133.124, 133.169, 133.173, 133.179, 133.187, 133.188, 172.872, 181.23

>  <LD50-rat-oral> (76)
7360

>  <Compound classification> (76)
Ali-COOH

>  <Microorganism> (76)
Aspergillus niger

>  <Microorganism classification> (76)
fungi

>  <MIC> (76)
200

>  <Annotation> (76)
MIC: range 200-1000 ppm, pH=4.5-5

>  <Method abbreviation> (76)
SDT

>  <Ref-Nr> (76)
1045

>  <Marker> (76)
0

>  <Method> (76)
Serial dilution tests: review article - methods cited therein; low MIC value was inserted in MIC field, inhibition range given among annotations

>  <Reference> (76)
Rehm, H.-J.: Grenzhemmkonzentrationen der zugelassenen Konservierungsmittel gegen Mikroorganismen; Zeitschrift fuer Lebensmittel-Untersuchung und -Forschung 115, 293 (1961)

>  <mol_id> (76)
203

>  <LD50-mouse-oral> (76)
3200

>  <LD50-mou-ip> (76)
2820

>  <MolWeight> (76)
112.12

>  <Nickname> (76)
Sorbic acid

$$$$

csChmFindW11180110282D

 14 14  0  0  0  0  0  0  0  0999 V2000
    4.2729    0.9591    0.0005 C   0  0  0  0  0  0  0  0  0  0  0  0
    2.8729    0.9629    0.0006 C   0  0  0  0  0  0  0  0  0  0  0  0
    4.9789    2.1717    0.0000 C   0  0  0  0  0  0  0  0  0  0  0  0
    2.1710    2.1833    0.0002 C   0  0  0  0  0  0  0  0  0  0  0  0
    4.2845    3.3897   -0.0004 C   0  0  0  0  0  0  0  0  0  0  0  0
    2.8836    3.3971   -0.0005 C   0  0  0  0  0  0  0  0  0  0  0  0
    0.6921    2.1791    0.0000 C   0  0  0  0  0  0  0  0  0  0  0  0
    0.0000    3.2071   -0.0003 O   0  0  0  0  0  0  0  0  0  0  0  0
    4.8224    0.0000    0.0009 H   0  0  0  0  0  0  0  0  0  0  0  0
    2.3178    0.0057    0.0011 H   0  0  0  0  0  0  0  0  0  0  0  0
    6.0848    2.1663    0.0000 H   0  0  0  0  0  0  0  0  0  0  0  0
    4.8421    4.3443   -0.0009 H   0  0  0  0  0  0  0  0  0  0  0  0
    2.3223    4.3522   -0.0008 H   0  0  0  0  0  0  0  0  0  0  0  0
    0.2224    1.1623    0.0005 H   0  0  0  0  0  0  0  0  0  0  0  0
  1  2  2  0  0  0  0
  1  3  1  0  0  0  0
  1  9  1  0  0  0  0
  2  4  1  0  0  0  0
  2 10  1  0  0  0  0
  3  5  2  0  0  0  0
  3 11  1  0  0  0  0
  4  6  2  0  0  0  0
  4  7  1  0  0  0  0
  5  6  1  0  0  0  0
  5 12  1  0  0  0  0
  6 13  1  0  0  0  0
  7  8  2  0  0  0  0
  7 14  1  0  0  0  0
M  END
>  <Formula> (77)
C7H6O

>  <Name> (77)
BENZALDEHYDE

>  <CAS-Nr> (77)
100-52-7

>  <EINECS> (77)
202-860-4

>  <21 CFR> (77)
182.60, 582.60

>  <LD50-rat-oral> (77)
1300

>  <Compound classification> (77)
Ar-CHO

>  <Microorganism> (77)
Candida albicans

>  <Microorganism classification> (77)
yeast

>  <Inhibition zone> (77)
12

>  <ADT evaluation> (77)
2

>  <Method abbreviation> (77)
ADT

>  <Ref-Nr> (77)
1154

>  <Marker> (77)
0

>  <Method> (77)
Serial dilution test; method cited: Deutsche Gesellschaft fuer Hygiene und Mikrobiologie: Richtlinien fuer die Pruefung chemischer Desinfektionsmittel, 3. Auflage, G.Fischer-Verlag, Stuttgart (1972); Agar diffusion test: Medium: agar; compound dose: compound was dissolved in 1,2-propylenglycol, this solution (100 microliter containing 5 mmol compound) was given into a cylinder, which was placed on the agar surface

>  <Reference> (77)
Rehn, D., Nolte, H., Zerling, W.: Zur antimikrobiellen Wirksamkeit substituierter aromatischer Aldehyde; Zentralblatt fuer Bakteriologie und Hygiene, I. Abteilung Originale B 172, 508-19 (1981)

>  <mol_id> (77)
155

>  <LD50-mouse-oral> (77)
28

>  <LD50-mou-ip> (77)
9

>  <MolWeight> (77)
106.12

>  <Nickname> (77)
Benzoic aldehyde

>  <other Names> (77)
artificial essential oil of almond

$$$$

csChmFindW11180110282D

 14 14  0  0  0  0  0  0  0  0999 V2000
    4.2729    0.9591    0.0005 C   0  0  0  0  0  0  0  0  0  0  0  0
    2.8729    0.9629    0.0006 C   0  0  0  0  0  0  0  0  0  0  0  0
    4.9789    2.1717    0.0000 C   0  0  0  0  0  0  0  0  0  0  0  0
    2.1710    2.1833    0.0002 C   0  0  0  0  0  0  0  0  0  0  0  0
    4.2845    3.3897   -0.0004 C   0  0  0  0  0  0  0  0  0  0  0  0
    2.8836    3.3971   -0.0005 C   0  0  0  0  0  0  0  0  0  0  0  0
    0.6921    2.1791    0.0000 C   0  0  0  0  0  0  0  0  0  0  0  0
    0.0000    3.2071   -0.0003 O   0  0  0  0  0  0  0  0  0  0  0  0
    4.8224    0.0000    0.0009 H   0  0  0  0  0  0  0  0  0  0  0  0
    2.3178    0.0057    0.0011 H   0  0  0  0  0  0  0  0  0  0  0  0
    6.0848    2.1663    0.0000 H   0  0  0  0  0  0  0  0  0  0  0  0
    4.8421    4.3443   -0.0009 H   0  0  0  0  0  0  0  0  0  0  0  0
    2.3223    4.3522   -0.0008 H   0  0  0  0  0  0  0  0  0  0  0  0
    0.2224    1.1623    0.0005 H   0  0  0  0  0  0  0  0  0  0  0  0
  1  2  2  0  0  0  0
  1  3  1  0  0  0  0
  1  9  1  0  0  0  0
  2  4  1  0  0  0  0
  2 10  1  0  0  0  0
  3  5  2  0  0  0  0
  3 11  1  0  0  0  0
  4  6  2  0  0  0  0
  4  7  1  0  0  0  0
  5  6  1  0  0  0  0
  5 12  1  0  0  0  0
  6 13  1  0  0  0  0
  7  8  2  0  0  0  0
  7 14  1  0  0  0  0
M  END
>  <Formula> (78)
C7H6O

>  <Name> (78)
BENZALDEHYDE

>  <CAS-Nr> (78)
100-52-7

>  <EINECS> (78)
202-860-4

>  <21 CFR> (78)
182.60, 582.60

>  <LD50-rat-oral> (78)
1300

>  <Compound classification> (78)
Ar-CHO

>  <Microorganism> (78)
Candida albicans

>  <Microorganism classification> (78)
yeast

>  <MIC> (78)
500

>  <Method abbreviation> (78)
SDT

>  <Ref-Nr> (78)
1154

>  <Marker> (78)
0

>  <Method> (78)
Serial dilution test; method cited: Deutsche Gesellschaft fuer Hygiene und Mikrobiologie: Richtlinien fuer die Pruefung chemischer Desinfektionsmittel, 3. Auflage, G.Fischer-Verlag, Stuttgart (1972); Agar diffusion test: Medium: agar; compound dose: compound was dissolved in 1,2-propylenglycol, this solution (100 microliter containing 5 mmol compound) was given into a cylinder, which was placed on the agar surface

>  <Reference> (78)
Rehn, D., Nolte, H., Zerling, W.: Zur antimikrobiellen Wirksamkeit substituierter aromatischer Aldehyde; Zentralblatt fuer Bakteriologie und Hygiene, I. Abteilung Originale B 172, 508-19 (1981)

>  <mol_id> (78)
155

>  <LD50-mouse-oral> (78)
28

>  <LD50-mou-ip> (78)
9

>  <MolWeight> (78)
106.12

>  <Nickname> (78)
Benzoic aldehyde

>  <other Names> (78)
artificial essential oil of almond

$$$$

csChmFindW11180110282D

 23 24  0  0  0  0  0  0  0  0999 V2000
    2.1964    4.1108    0.4933 C   0  0  0  0  0  0  0  0  0  0  0  0
    1.3378    2.6473    0.4933 C   0  0  0  0  0  0  0  0  0  0  0  0
    2.1828    1.1754    0.4787 C   0  0  0  0  0  0  0  0  0  0  0  0
    3.8778    1.1653    0.4703 C   0  0  0  0  0  0  0  0  0  0  0  0
    4.7507    2.6333    0.4752 C   0  0  0  0  0  0  0  0  0  0  0  0
    3.8921    4.1074    0.4817 C   0  0  0  0  0  0  0  0  0  0  0  0
    6.5283    2.6072    0.4946 C   0  0  0  0  0  0  0  0  0  0  0  0
    7.3475    1.4719    1.4703 C   0  0  0  0  0  0  0  0  0  0  0  0
    9.0402    1.4033    1.5130 C   0  0  0  0  0  0  0  0  0  0  0  0
    9.9589    2.4751    0.5717 C   0  0  0  0  0  0  0  0  0  0  0  0
    9.1851    3.6193   -0.4067 C   0  0  0  0  0  0  0  0  0  0  0  0
    7.4787    3.6907   -0.4411 C   0  0  0  0  0  0  0  0  0  0  0  0
    6.6778    4.8220   -1.3827 O   0  0  0  0  0  0  0  0  0  0  0  0
    1.5353    5.2745    0.5003 H   0  0  0  0  0  0  0  0  0  0  0  0
    0.0000    2.6531    0.5018 H   0  0  0  0  0  0  0  0  0  0  0  0
    1.5108    0.0180    0.4712 H   0  0  0  0  0  0  0  0  0  0  0  0
    4.5368    0.0000    0.4489 H   0  0  0  0  0  0  0  0  0  0  0  0
    4.5671    5.2649    0.4637 H   0  0  0  0  0  0  0  0  0  0  0  0
    6.6297    0.6247    2.2212 H   0  0  0  0  0  0  0  0  0  0  0  0
    9.6510    0.5024    2.2910 H   0  0  0  0  0  0  0  0  0  0  0  0
   11.2960    2.4204    0.6014 H   0  0  0  0  0  0  0  0  0  0  0  0
    9.9021    4.4677   -1.1520 H   0  0  0  0  0  0  0  0  0  0  0  0
    7.4817    5.3803   -2.0392 H   0  0  0  0  0  0  0  0  0  0  0  0
  1  2  2  0  0  0  0
  1  6  1  0  0  0  0
  1 14  1  0  0  0  0
  2  3  1  0  0  0  0
  2 15  1  0  0  0  0
  3  4  2  0  0  0  0
  3 16  1  0  0  0  0
  4  5  1  0  0  0  0
  4 17  1  0  0  0  0
  5  6  2  0  0  0  0
  5  7  1  0  0  0  0
  6 18  1  0  0  0  0
  7  8  2  0  0  0  0
  7 12  1  6  0  0  0
  8  9  1  0  0  0  0
  8 19  1  1  0  0  0
  9 10  2  0  0  0  0
  9 20  1  1  0  0  0
 10 11  1  6  0  0  0
 10 21  1  0  0  0  0
 11 12  2  0  0  0  0
 11 22  1  6  0  0  0
 12 13  1  6  0  0  0
 13 23  1  6  0  0  0
M  END
>  <Formula> (79)
C12H10O

>  <Name> (79)
BIPHENYL-2-OL

>  <CAS-Nr> (79)
90-43-7

>  <EINECS> (79)
201-993-5

>  <21 CFR> (79)
175.105

>  <LD50-rat-oral> (79)
2000

>  <Compound classification> (79)
Ar-OH

>  <Microorganism> (79)
Staphylococcus aureus

>  <Microorganism classification> (79)
Bac+

>  <MMC> (79)
1250

>  <Annotation> (79)
killing time 5 min.

>  <Method abbreviation> (79)
SDT

>  <Ref-Nr> (79)
1167

>  <Marker> (79)
0

>  <Method> (79)
Serial dilution test - inhibitory activity relative to phenol (phenolcoefficients); Inoculum size: 5 drops of 24 hours bacterial culture; Medium: 5 ml soap solution; pH: ---; Incubation-temperature: 37 degrees Centigrade; Incubation-time: 2.5, 5, 7.5, 10, 12.5, 15 min; Solubility enhancer: soap solution; subcultures were incubated at 37 degrees Centigrade for 48h; Bacterial strains: Salmonella typhi, Staphylococcus aureus, Eschericia coli, Streptococcus haemolyticus, Mycobacterium smegmatis, Trichophyton rosaceum [see U.S. Dept. of Agriculture Circular No. 198 (1931) and Rideal, S., Walker, J.T.A.: Standardisation of Disinfectants; J. Roy. Sanit. Soc. 24, 424-41 (1903)]

>  <Reference> (79)
Suter, C.M.: Relationships Between the Structure and Bactericidal Properties of Phenols; Chemical Reviews 28, 269-99 (1941)

>  <mol_id> (79)
1461

>  <LD50-mouse-oral> (79)
1050

>  <LD50-mou-ip> (79)
50

>  <MolWeight> (79)
170.21

>  <Nickname> (79)
ortho-Phenylphenol

>  <other Names> (79)
ortho-Xenol, 2-Biphenylol

$$$$

csChmFindW11180110282D

 23 24  0  0  0  0  0  0  0  0999 V2000
    2.1964    4.1108    0.4933 C   0  0  0  0  0  0  0  0  0  0  0  0
    1.3378    2.6473    0.4933 C   0  0  0  0  0  0  0  0  0  0  0  0
    2.1828    1.1754    0.4787 C   0  0  0  0  0  0  0  0  0  0  0  0
    3.8778    1.1653    0.4703 C   0  0  0  0  0  0  0  0  0  0  0  0
    4.7507    2.6333    0.4752 C   0  0  0  0  0  0  0  0  0  0  0  0
    3.8921    4.1074    0.4817 C   0  0  0  0  0  0  0  0  0  0  0  0
    6.5283    2.6072    0.4946 C   0  0  0  0  0  0  0  0  0  0  0  0
    7.3475    1.4719    1.4703 C   0  0  0  0  0  0  0  0  0  0  0  0
    9.0402    1.4033    1.5130 C   0  0  0  0  0  0  0  0  0  0  0  0
    9.9589    2.4751    0.5717 C   0  0  0  0  0  0  0  0  0  0  0  0
    9.1851    3.6193   -0.4067 C   0  0  0  0  0  0  0  0  0  0  0  0
    7.4787    3.6907   -0.4411 C   0  0  0  0  0  0  0  0  0  0  0  0
    6.6778    4.8220   -1.3827 O   0  0  0  0  0  0  0  0  0  0  0  0
    1.5353    5.2745    0.5003 H   0  0  0  0  0  0  0  0  0  0  0  0
    0.0000    2.6531    0.5018 H   0  0  0  0  0  0  0  0  0  0  0  0
    1.5108    0.0180    0.4712 H   0  0  0  0  0  0  0  0  0  0  0  0
    4.5368    0.0000    0.4489 H   0  0  0  0  0  0  0  0  0  0  0  0
    4.5671    5.2649    0.4637 H   0  0  0  0  0  0  0  0  0  0  0  0
    6.6297    0.6247    2.2212 H   0  0  0  0  0  0  0  0  0  0  0  0
    9.6510    0.5024    2.2910 H   0  0  0  0  0  0  0  0  0  0  0  0
   11.2960    2.4204    0.6014 H   0  0  0  0  0  0  0  0  0  0  0  0
    9.9021    4.4677   -1.1520 H   0  0  0  0  0  0  0  0  0  0  0  0
    7.4817    5.3803   -2.0392 H   0  0  0  0  0  0  0  0  0  0  0  0
  1  2  2  0  0  0  0
  1  6  1  0  0  0  0
  1 14  1  0  0  0  0
  2  3  1  0  0  0  0
  2 15  1  0  0  0  0
  3  4  2  0  0  0  0
  3 16  1  0  0  0  0
  4  5  1  0  0  0  0
  4 17  1  0  0  0  0
  5  6  2  0  0  0  0
  5  7  1  0  0  0  0
  6 18  1  0  0  0  0
  7  8  2  0  0  0  0
  7 12  1  6  0  0  0
  8  9  1  0  0  0  0
  8 19  1  1  0  0  0
  9 10  2  0  0  0  0
  9 20  1  1  0  0  0
 10 11  1  6  0  0  0
 10 21  1  0  0  0  0
 11 12  2  0  0  0  0
 11 22  1  6  0  0  0
 12 13  1  6  0  0  0
 13 23  1  6  0  0  0
M  END
>  <Formula> (80)
C12H10O

>  <Name> (80)
BIPHENYL-2-OL

>  <CAS-Nr> (80)
90-43-7

>  <EINECS> (80)
201-993-5

>  <21 CFR> (80)
175.105

>  <LD50-rat-oral> (80)
2000

>  <Compound classification> (80)
Ar-OH

>  <Microorganism> (80)
Staphylococcus aureus

>  <Microorganism classification> (80)
Bac+

>  <MMC> (80)
800

>  <Annotation> (80)
killing time <15 min., MMC recalculated from PC

>  <Method abbreviation> (80)
SDT

>  <Ref-Nr> (80)
1167

>  <Marker> (80)
0

>  <Method> (80)
Serial dilution test - inhibitory activity relative to phenol (phenolcoefficients); Inoculum size: 5 drops of 24 hours bacterial culture; Medium: 5 ml soap solution; pH: ---; Incubation-temperature: 37 degrees Centigrade; Incubation-time: 2.5, 5, 7.5, 10, 12.5, 15 min; Solubility enhancer: soap solution; subcultures were incubated at 37 degrees Centigrade for 48h; Bacterial strains: Salmonella typhi, Staphylococcus aureus, Eschericia coli, Streptococcus haemolyticus, Mycobacterium smegmatis, Trichophyton rosaceum [see U.S. Dept. of Agriculture Circular No. 198 (1931) and Rideal, S., Walker, J.T.A.: Standardisation of Disinfectants; J. Roy. Sanit. Soc. 24, 424-41 (1903)]

>  <Reference> (80)
Suter, C.M.: Relationships Between the Structure and Bactericidal Properties of Phenols; Chemical Reviews 28, 269-99 (1941)

>  <mol_id> (80)
1461

>  <LD50-mouse-oral> (80)
1050

>  <LD50-mou-ip> (80)
50

>  <MolWeight> (80)
170.21

>  <Nickname> (80)
ortho-Phenylphenol

>  <other Names> (80)
ortho-Xenol, 2-Biphenylol

$$$$

csChmFindW11180110282D

 14 14  0  0  0  0  0  0  0  0999 V2000
    4.2729    0.9591    0.0005 C   0  0  0  0  0  0  0  0  0  0  0  0
    2.8729    0.9629    0.0006 C   0  0  0  0  0  0  0  0  0  0  0  0
    4.9789    2.1717    0.0000 C   0  0  0  0  0  0  0  0  0  0  0  0
    2.1710    2.1833    0.0002 C   0  0  0  0  0  0  0  0  0  0  0  0
    4.2845    3.3897   -0.0004 C   0  0  0  0  0  0  0  0  0  0  0  0
    2.8836    3.3971   -0.0005 C   0  0  0  0  0  0  0  0  0  0  0  0
    0.6921    2.1791    0.0000 C   0  0  0  0  0  0  0  0  0  0  0  0
    0.0000    3.2071   -0.0003 O   0  0  0  0  0  0  0  0  0  0  0  0
    4.8224    0.0000    0.0009 H   0  0  0  0  0  0  0  0  0  0  0  0
    2.3178    0.0057    0.0011 H   0  0  0  0  0  0  0  0  0  0  0  0
    6.0848    2.1663    0.0000 H   0  0  0  0  0  0  0  0  0  0  0  0
    4.8421    4.3443   -0.0009 H   0  0  0  0  0  0  0  0  0  0  0  0
    2.3223    4.3522   -0.0008 H   0  0  0  0  0  0  0  0  0  0  0  0
    0.2224    1.1623    0.0005 H   0  0  0  0  0  0  0  0  0  0  0  0
  1  2  2  0  0  0  0
  1  3  1  0  0  0  0
  1  9  1  0  0  0  0
  2  4  1  0  0  0  0
  2 10  1  0  0  0  0
  3  5  2  0  0  0  0
  3 11  1  0  0  0  0
  4  6  2  0  0  0  0
  4  7  1  0  0  0  0
  5  6  1  0  0  0  0
  5 12  1  0  0  0  0
  6 13  1  0  0  0  0
  7  8  2  0  0  0  0
  7 14  1  0  0  0  0
M  END
>  <Formula> (81)
C7H6O

>  <Name> (81)
BENZALDEHYDE

>  <CAS-Nr> (81)
100-52-7

>  <EINECS> (81)
202-860-4

>  <21 CFR> (81)
182.60, 582.60

>  <LD50-rat-oral> (81)
1300

>  <Compound classification> (81)
Ar-CHO

>  <Microorganism> (81)
Candida albicans

>  <Microorganism type> (81)
4658

>  <Microorganism classification> (81)
yeast

>  <Inhibition zone> (81)
0

>  <ADT evaluation> (81)
1

>  <Method abbreviation> (81)
ADT

>  <Ref-Nr> (81)
1181

>  <Marker> (81)
0

>  <Method> (81)
Agar diffusion test; Fungi: Medium: Sabouraud glucose agar; Inoculum size: adjusted spore suspension; disk diameter: 9 mm; Incubation temperature: 26 degrees Centigrade; Incubation time: 7d; compound dose: 30 microliter of 1% solution in propanol or ethylene glycol monomethylether; Bacteria: Medium: Oxoid agar; Inoculum size: defined; hole diameter: 8mm; Incubation temperature: 37 degrees Centigrade; Incubation time: 24-48h; compound dose: 50 microliter of 1% solution per hole (see above)

>  <Reference> (81)
Leifertova, L., Hejtmankova, N., Hlava, H., Kudrnacova, J., Santavy, F.: Antifungal and Antibacterial Effects of Phenolic Substances; Acta Universitatis Palackianae Olomucensis, Facultatis Medicae 74, 83-101 (1975)

>  <mol_id> (81)
155

>  <LD50-mouse-oral> (81)
28

>  <LD50-mou-ip> (81)
9

>  <MolWeight> (81)
106.12

>  <Nickname> (81)
Benzoic aldehyde

>  <other Names> (81)
artificial essential oil of almond

$$$$

csChmFindW11180110282D

 32 33  0  0  0  0  0  0  0  0999 V2000
    8.7084    4.4787   -2.9922 C   0  0  0  0  0  0  0  0  0  0  0  0
    8.5719    2.7019   -2.8763 C   0  0  0  0  0  0  0  0  0  0  0  0
   10.0565    1.7122   -2.8772 C   0  0  0  0  0  0  0  0  0  0  0  0
   11.6520    2.4881   -2.9885 C   0  0  0  0  0  0  0  0  0  0  0  0
   11.7791    4.2576   -3.1011 C   0  0  0  0  0  0  0  0  0  0  0  0
   10.3039    5.2514   -3.1030 C   0  0  0  0  0  0  0  0  0  0  0  0
    6.8639    1.8812   -2.7753 C   0  0  0  0  0  0  0  0  0  0  0  0
    5.9960    2.2308   -1.0823 C   0  0  0  0  0  0  0  0  0  0  0  0
    4.2439    1.4123   -1.0295 C   0  0  0  0  0  0  0  0  0  0  0  0
    3.3734    1.7179    0.6272 C   0  0  0  0  0  0  0  0  0  0  0  0
    3.9529    0.9228    2.1139 C   0  0  0  0  0  0  0  0  0  0  0  0
    3.1418    1.1855    3.6730 C   0  0  0  0  0  0  0  0  0  0  0  0
    1.7258    2.2556    3.7715 C   0  0  0  0  0  0  0  0  0  0  0  0
    1.1169    3.0636    2.3134 C   0  0  0  0  0  0  0  0  0  0  0  0
    1.9396    2.7945    0.7483 C   0  0  0  0  0  0  0  0  0  0  0  0
    1.3846    3.5636   -0.7311 O   0  0  0  0  0  0  0  0  0  0  0  0
    7.5453    5.2631   -2.9948 H   0  0  0  0  0  0  0  0  0  0  0  0
    9.9646    0.3152   -2.7902 H   0  0  0  0  0  0  0  0  0  0  0  0
   12.8122    1.7005   -2.9879 H   0  0  0  0  0  0  0  0  0  0  0  0
   13.0376    4.8684   -3.1891 H   0  0  0  0  0  0  0  0  0  0  0  0
   10.3995    6.6475   -3.1932 H   0  0  0  0  0  0  0  0  0  0  0  0
    6.9859    0.4670   -2.9621 H   0  0  0  0  0  0  0  0  0  0  0  0
    6.0414    2.3777   -3.8388 H   0  0  0  0  0  0  0  0  0  0  0  0
    5.8748    3.6424   -0.8893 H   0  0  0  0  0  0  0  0  0  0  0  0
    6.7977    1.7217   -0.0134 H   0  0  0  0  0  0  0  0  0  0  0  0
    4.3739    0.0000   -1.2349 H   0  0  0  0  0  0  0  0  0  0  0  0
    3.4470    1.9267   -2.1027 H   0  0  0  0  0  0  0  0  0  0  0  0
    5.0704    0.0762    2.0405 H   0  0  0  0  0  0  0  0  0  0  0  0
    3.6201    0.5472    4.8257 H   0  0  0  0  0  0  0  0  0  0  0  0
    1.0847    2.4640    5.0012 H   0  0  0  0  0  0  0  0  0  0  0  0
    0.0000    3.9069    2.3830 H   0  0  0  0  0  0  0  0  0  0  0  0
    0.3895    4.2396   -0.4545 H   0  0  0  0  0  0  0  0  0  0  0  0
  1  2  2  0  0  0  0
  1  6  1  0  0  0  0
  1 17  1  0  0  0  0
  2  3  1  0  0  0  0
  2  7  1  0  0  0  0
  3  4  2  0  0  0  0
  3 18  1  0  0  0  0
  4  5  1  0  0  0  0
  4 19  1  0  0  0  0
  5  6  2  0  0  0  0
  5 20  1  0  0  0  0
  6 21  1  0  0  0  0
  7  8  1  1  0  0  0
  7 22  1  0  0  0  0
  7 23  1  6  0  0  0
  8  9  1  0  0  0  0
  8 24  1  0  0  0  0
  8 25  1  1  0  0  0
  9 10  1  1  0  0  0
  9 26  1  0  0  0  0
  9 27  1  6  0  0  0
 10 11  2  0  0  0  0
 10 15  1  0  0  0  0
 11 12  1  1  0  0  0
 11 28  1  0  0  0  0
 12 13  2  0  0  0  0
 12 29  1  1  0  0  0
 13 14  1  6  0  0  0
 13 30  1  1  0  0  0
 14 15  2  0  0  0  0
 14 31  1  0  0  0  0
 15 16  1  6  0  0  0
 16 32  1  0  0  0  0
M  END
>  <Formula> (82)
C15H16O

>  <Name> (82)
2-(3-PHENYL-PROPYL)-PHENOL

>  <Compound classification> (82)
Phenylpropane

>  <Microorganism> (82)
Micrococcus luteus

>  <Publication strain name> (82)
Sarcina lutea

>  <Microorganism classification> (82)
Bac+

>  <MIC> (82)
25

>  <Method abbreviation> (82)
ADlT

>  <Ref-Nr> (82)
1189

>  <Marker> (82)
0

>  <Method> (82)
Agar dilution test; Inoculum size: ---; Medium: plate count agar (bacteria), potato-dextrose agar (fungi, yeasts); pH: 7.0 bacteria, 5.6 others; Incubation-temperature: 28 degrees Centigrade; Incubation-time: 1-5d; Solubility enhancer: acetone

>  <Reference> (82)
Jurd, L., Stevens, K.L., King, A.D.,jr., Mihara, K.: Antimicrobial Properties of Natural Phenols and Related Compounds II: Cinnamylated Phenols and Their Hydrogenation Products; Journal of Pharmaceutical Sciences 60, 1753-55 (1971)

>  <mol_id> (82)
1453

>  <MolWeight> (82)
212.29

>  <Nickname> (82)
Dihydro-2-cinnamylphenol

$$$$

csChmFindW11180110282D

 32 33  0  0  0  0  0  0  0  0999 V2000
    8.7084    4.4787   -2.9922 C   0  0  0  0  0  0  0  0  0  0  0  0
    8.5719    2.7019   -2.8763 C   0  0  0  0  0  0  0  0  0  0  0  0
   10.0565    1.7122   -2.8772 C   0  0  0  0  0  0  0  0  0  0  0  0
   11.6520    2.4881   -2.9885 C   0  0  0  0  0  0  0  0  0  0  0  0
   11.7791    4.2576   -3.1011 C   0  0  0  0  0  0  0  0  0  0  0  0
   10.3039    5.2514   -3.1030 C   0  0  0  0  0  0  0  0  0  0  0  0
    6.8639    1.8812   -2.7753 C   0  0  0  0  0  0  0  0  0  0  0  0
    5.9960    2.2308   -1.0823 C   0  0  0  0  0  0  0  0  0  0  0  0
    4.2439    1.4123   -1.0295 C   0  0  0  0  0  0  0  0  0  0  0  0
    3.3734    1.7179    0.6272 C   0  0  0  0  0  0  0  0  0  0  0  0
    3.9529    0.9228    2.1139 C   0  0  0  0  0  0  0  0  0  0  0  0
    3.1418    1.1855    3.6730 C   0  0  0  0  0  0  0  0  0  0  0  0
    1.7258    2.2556    3.7715 C   0  0  0  0  0  0  0  0  0  0  0  0
    1.1169    3.0636    2.3134 C   0  0  0  0  0  0  0  0  0  0  0  0
    1.9396    2.7945    0.7483 C   0  0  0  0  0  0  0  0  0  0  0  0
    1.3846    3.5636   -0.7311 O   0  0  0  0  0  0  0  0  0  0  0  0
    7.5453    5.2631   -2.9948 H   0  0  0  0  0  0  0  0  0  0  0  0
    9.9646    0.3152   -2.7902 H   0  0  0  0  0  0  0  0  0  0  0  0
   12.8122    1.7005   -2.9879 H   0  0  0  0  0  0  0  0  0  0  0  0
   13.0376    4.8684   -3.1891 H   0  0  0  0  0  0  0  0  0  0  0  0
   10.3995    6.6475   -3.1932 H   0  0  0  0  0  0  0  0  0  0  0  0
    6.9859    0.4670   -2.9621 H   0  0  0  0  0  0  0  0  0  0  0  0
    6.0414    2.3777   -3.8388 H   0  0  0  0  0  0  0  0  0  0  0  0
    5.8748    3.6424   -0.8893 H   0  0  0  0  0  0  0  0  0  0  0  0
    6.7977    1.7217   -0.0134 H   0  0  0  0  0  0  0  0  0  0  0  0
    4.3739    0.0000   -1.2349 H   0  0  0  0  0  0  0  0  0  0  0  0
    3.4470    1.9267   -2.1027 H   0  0  0  0  0  0  0  0  0  0  0  0
    5.0704    0.0762    2.0405 H   0  0  0  0  0  0  0  0  0  0  0  0
    3.6201    0.5472    4.8257 H   0  0  0  0  0  0  0  0  0  0  0  0
    1.0847    2.4640    5.0012 H   0  0  0  0  0  0  0  0  0  0  0  0
    0.0000    3.9069    2.3830 H   0  0  0  0  0  0  0  0  0  0  0  0
    0.3895    4.2396   -0.4545 H   0  0  0  0  0  0  0  0  0  0  0  0
  1  2  2  0  0  0  0
  1  6  1  0  0  0  0
  1 17  1  0  0  0  0
  2  3  1  0  0  0  0
  2  7  1  0  0  0  0
  3  4  2  0  0  0  0
  3 18  1  0  0  0  0
  4  5  1  0  0  0  0
  4 19  1  0  0  0  0
  5  6  2  0  0  0  0
  5 20  1  0  0  0  0
  6 21  1  0  0  0  0
  7  8  1  1  0  0  0
  7 22  1  0  0  0  0
  7 23  1  6  0  0  0
  8  9  1  0  0  0  0
  8 24  1  0  0  0  0
  8 25  1  1  0  0  0
  9 10  1  1  0  0  0
  9 26  1  0  0  0  0
  9 27  1  6  0  0  0
 10 11  2  0  0  0  0
 10 15  1  0  0  0  0
 11 12  1  1  0  0  0
 11 28  1  0  0  0  0
 12 13  2  0  0  0  0
 12 29  1  1  0  0  0
 13 14  1  6  0  0  0
 13 30  1  1  0  0  0
 14 15  2  0  0  0  0
 14 31  1  0  0  0  0
 15 16  1  6  0  0  0
 16 32  1  0  0  0  0
M  END
>  <Formula> (83)
C15H16O

>  <Name> (83)
2-(3-PHENYL-PROPYL)-PHENOL

>  <Compound classification> (83)
Phenylpropane

>  <Microorganism> (83)
Saccharomyces cerevisiae var. ellipsoideus

>  <Microorganism type> (83)
Y44

>  <Microorganism classification> (83)
yeast

>  <MIC> (83)
12

>  <Method abbreviation> (83)
ADlT

>  <Ref-Nr> (83)
1189

>  <Marker> (83)
0

>  <Method> (83)
Agar dilution test; Inoculum size: ---; Medium: plate count agar (bacteria), potato-dextrose agar (fungi, yeasts); pH: 7.0 bacteria, 5.6 others; Incubation-temperature: 28 degrees Centigrade; Incubation-time: 1-5d; Solubility enhancer: acetone

>  <Reference> (83)
Jurd, L., Stevens, K.L., King, A.D.,jr., Mihara, K.: Antimicrobial Properties of Natural Phenols and Related Compounds II: Cinnamylated Phenols and Their Hydrogenation Products; Journal of Pharmaceutical Sciences 60, 1753-55 (1971)

>  <mol_id> (83)
1453

>  <MolWeight> (83)
212.29

>  <Nickname> (83)
Dihydro-2-cinnamylphenol

$$$$

csChmFindW11180110282D

 14 14  0  0  0  0  0  0  0  0999 V2000
    4.2729    0.9591    0.0005 C   0  0  0  0  0  0  0  0  0  0  0  0
    2.8729    0.9629    0.0006 C   0  0  0  0  0  0  0  0  0  0  0  0
    4.9789    2.1717    0.0000 C   0  0  0  0  0  0  0  0  0  0  0  0
    2.1710    2.1833    0.0002 C   0  0  0  0  0  0  0  0  0  0  0  0
    4.2845    3.3897   -0.0004 C   0  0  0  0  0  0  0  0  0  0  0  0
    2.8836    3.3971   -0.0005 C   0  0  0  0  0  0  0  0  0  0  0  0
    0.6921    2.1791    0.0000 C   0  0  0  0  0  0  0  0  0  0  0  0
    0.0000    3.2071   -0.0003 O   0  0  0  0  0  0  0  0  0  0  0  0
    4.8224    0.0000    0.0009 H   0  0  0  0  0  0  0  0  0  0  0  0
    2.3178    0.0057    0.0011 H   0  0  0  0  0  0  0  0  0  0  0  0
    6.0848    2.1663    0.0000 H   0  0  0  0  0  0  0  0  0  0  0  0
    4.8421    4.3443   -0.0009 H   0  0  0  0  0  0  0  0  0  0  0  0
    2.3223    4.3522   -0.0008 H   0  0  0  0  0  0  0  0  0  0  0  0
    0.2224    1.1623    0.0005 H   0  0  0  0  0  0  0  0  0  0  0  0
  1  2  2  0  0  0  0
  1  3  1  0  0  0  0
  1  9  1  0  0  0  0
  2  4  1  0  0  0  0
  2 10  1  0  0  0  0
  3  5  2  0  0  0  0
  3 11  1  0  0  0  0
  4  6  2  0  0  0  0
  4  7  1  0  0  0  0
  5  6  1  0  0  0  0
  5 12  1  0  0  0  0
  6 13  1  0  0  0  0
  7  8  2  0  0  0  0
  7 14  1  0  0  0  0
M  END
>  <Formula> (84)
C7H6O

>  <Name> (84)
BENZALDEHYDE

>  <CAS-Nr> (84)
100-52-7

>  <EINECS> (84)
202-860-4

>  <21 CFR> (84)
182.60, 582.60

>  <LD50-rat-oral> (84)
1300

>  <Compound classification> (84)
Ar-CHO

>  <Microorganism> (84)
Candida albicans

>  <Microorganism classification> (84)
yeast

>  <NIC> (84)
5000

>  <Annotation> (84)
does not kill in 30 min.

>  <Method abbreviation> (84)
SDT

>  <Ref-Nr> (84)
1269

>  <Marker> (84)
0

>  <Method> (84)
Serial dilution test; MMC: killing time was determined within 30 minutes; method cited: Deutsche Gesellschaft fuer Hygiene und Mikrobiologie: Richtlinien fuer die Pruefung chemischer Desinfektionsmittel, 3. Auflage, G.Fischer-Verlag, Stuttgart (1972)

>  <Reference> (84)
Beilfuss, W.: Vergleichende Untersuchung der antimikrobiellen Wirksamkeit alpha, beta- ungesaettigter Aldehyde; Zentralblatt fuer Bakteriologie und Hygiene, I. Abteilung Orginale A, 234, 271-80 (1976)

>  <mol_id> (84)
155

>  <LD50-mouse-oral> (84)
28

>  <LD50-mou-ip> (84)
9

>  <MolWeight> (84)
106.12

>  <Nickname> (84)
Benzoic aldehyde

>  <other Names> (84)
artificial essential oil of almond

$$$$

csChmFindW11180110282D

 24 24  0  0  0  0  0  0  0  0999 V2000
    7.9403    5.4393    1.2459 C   0  0  0  0  0  0  0  0  0  0  0  0
    7.0715    3.9032    1.1169 C   0  0  0  0  0  0  0  0  0  0  0  0
    7.0436    6.9418    1.2706 C   0  0  0  0  0  0  0  0  0  0  0  0
    9.6533    5.5396    1.3495 O   0  0  0  0  0  0  0  0  0  0  0  0
    5.3313    3.8844    1.0176 C   0  0  0  0  0  0  0  0  0  0  0  0
    8.0859    2.4972    1.0977 O   0  0  0  0  0  0  0  0  0  0  0  0
    5.3043    6.9088    1.1697 C   0  0  0  0  0  0  0  0  0  0  0  0
    4.4421    5.3943    1.0446 C   0  0  0  0  0  0  0  0  0  0  0  0
    7.2456    0.9312    1.0245 C   0  0  0  0  0  0  0  0  0  0  0  0
    2.5800    5.3709    0.9558 C   0  0  0  0  0  0  0  0  0  0  0  0
    1.9625    4.8221   -0.7096 C   0  0  0  0  0  0  0  0  0  0  0  0
    0.6867    5.5375   -1.5034 C   0  0  0  0  0  0  0  0  0  0  0  0
    7.7279    8.1301    1.3693 H   0  0  0  0  0  0  0  0  0  0  0  0
   10.0991    4.4125    1.3189 H   0  0  0  0  0  0  0  0  0  0  0  0
    4.6447    2.6976    0.9179 H   0  0  0  0  0  0  0  0  0  0  0  0
    4.6074    8.0955    1.1881 H   0  0  0  0  0  0  0  0  0  0  0  0
    8.2910    0.0000    1.0470 H   0  0  0  0  0  0  0  0  0  0  0  0
    6.5127    0.8222   -0.1601 H   0  0  0  0  0  0  0  0  0  0  0  0
    6.4124    0.7665    2.1338 H   0  0  0  0  0  0  0  0  0  0  0  0
    2.0705    6.6423    1.2716 H   0  0  0  0  0  0  0  0  0  0  0  0
    2.0879    4.4776    1.9283 H   0  0  0  0  0  0  0  0  0  0  0  0
    2.6384    3.7511   -1.2561 H   0  0  0  0  0  0  0  0  0  0  0  0
    0.2434    5.0923   -2.7240 H   0  0  0  0  0  0  0  0  0  0  0  0
    0.0000    6.6121   -0.9949 H   0  0  0  0  0  0  0  0  0  0  0  0
  1  2  2  0  0  0  0
  1  3  1  0  0  0  0
  1  4  1  0  0  0  0
  2  5  1  0  0  0  0
  2  6  1  0  0  0  0
  3  7  2  0  0  0  0
  3 13  1  0  0  0  0
  4 14  1  0  0  0  0
  5  8  2  0  0  0  0
  5 15  1  0  0  0  0
  6  9  1  0  0  0  0
  7  8  1  0  0  0  0
  7 16  1  0  0  0  0
  8 10  1  0  0  0  0
  9 17  1  0  0  0  0
  9 18  1  6  0  0  0
  9 19  1  1  0  0  0
 10 11  1  6  0  0  0
 10 20  1  0  0  0  0
 10 21  1  1  0  0  0
 11 12  2  0  0  0  0
 11 22  1  0  0  0  0
 12 23  1  6  0  0  0
 12 24  1  0  0  0  0
M  END
>  <Formula> (85)
C10H12O2

>  <Name> (85)
2-METHOXY-4-(2-PROPENYL)-PHENOL

>  <CAS-Nr> (85)
97-53-0

>  <EINECS> (85)
202-589-1

>  <21 CFR> (85)
184.1257, 175.105, 177.2800, 582.60

>  <LD50-rat-oral> (85)
1930

>  <Compound classification> (85)
Phenylpropane

>  <Microorganism> (85)
Actinobacillus actinomycetemcomitans

>  <Microorganism type> (85)
Y4

>  <Microorganism classification> (85)
Bac-

>  <NIC> (85)
1000

>  <Method abbreviation> (85)
ADlT

>  <Ref-Nr> (85)
1275

>  <Marker> (85)
0

>  <Method> (85)
Agar dilution test; Inoculum size: ---; Medium: trypticase soy agar supplemented with 5 microgram/ml hemin and 10% defibrinated horse blood; pH:---; Incubation-temperature: 37 degrees Centigrade; Incubation-time: 4d; Incubation-atmosphere: 80% N2, 10% CO2, 10% H2; Solubility enhancer: ---; Dilutions tested were 100 and 1000 microgram/ml

>  <Reference> (85)
Saeki, Y., Ito, Y., Shibata, M., Sato, Y., Okuda, K., Takazoe, I.: Antimicrobial Action of Natural Substances on Oral Bacteria; Bulletin of the Tokyo Dental College 30, 129-35 (1990)

>  <mol_id> (85)
118

>  <LD50-mouse-oral> (85)
3000

>  <LD50-mou-ip> (85)
500

>  <MolWeight> (85)
164.20

>  <Nickname> (85)
Eugenol

>  <other Names> (85)
3-Methoxy-4-hydroxy-allylbenzene, Allylguaiacol, Eugenic acid, Caryophyllic acid

>  <LD50-mou-iv> (85)
72

$$$$

csChmFindW11180110282D

 42 42  0  0  0  0  0  0  0  0999 V2000
    8.5061   11.9623   -2.1145 C   0  0  0  0  0  0  0  0  0  0  0  0
    8.5312   10.0233   -1.6302 C   0  0  0  0  0  0  0  0  0  0  0  0
    7.1584   13.0924   -1.6893 C   0  0  0  0  0  0  0  0  0  0  0  0
    6.6826    9.3318   -1.0538 C   0  0  0  0  0  0  0  0  0  0  0  0
    5.5219   12.4737   -0.6996 C   0  0  0  0  0  0  0  0  0  0  0  0
    7.1804   15.0282   -2.1860 C   0  0  0  0  0  0  0  0  0  0  0  0
    5.8061   10.6721    0.2284 C   0  0  0  0  0  0  0  0  0  0  0  0
    6.8029    7.4195   -0.2330 C   0  0  0  0  0  0  0  0  0  0  0  0
    4.9492    6.5026   -0.3726 C   0  0  0  0  0  0  0  0  0  0  0  0
    7.4727    7.4510    1.7099 C   0  0  0  0  0  0  0  0  0  0  0  0
    8.0715    6.4743   -1.3394 O   0  0  0  0  0  0  0  0  0  0  0  0
    4.8440    4.7039    0.5901 C   0  0  0  0  0  0  0  0  0  0  0  0
    3.0889    3.7964    0.2833 C   0  0  0  0  0  0  0  0  0  0  0  0
    2.6080    2.2551    1.1052 C   0  0  0  0  0  0  0  0  0  0  0  0
    0.8415    1.3831    0.7597 C   0  0  0  0  0  0  0  0  0  0  0  0
    3.8034    1.3257    2.4120 C   0  0  0  0  0  0  0  0  0  0  0  0
    9.7027   12.4434   -2.8537 H   0  0  0  0  0  0  0  0  0  0  0  0
    9.5306    9.8092   -0.5099 H   0  0  0  0  0  0  0  0  0  0  0  0
    9.0147    9.2033   -2.8102 H   0  0  0  0  0  0  0  0  0  0  0  0
    5.8192    9.2266   -2.3010 H   0  0  0  0  0  0  0  0  0  0  0  0
    4.3742   12.3654   -1.6851 H   0  0  0  0  0  0  0  0  0  0  0  0
    5.1289   13.5102    0.3327 H   0  0  0  0  0  0  0  0  0  0  0  0
    5.9236   15.3861   -2.9410 H   0  0  0  0  0  0  0  0  0  0  0  0
    8.3685   15.3651   -3.0505 H   0  0  0  0  0  0  0  0  0  0  0  0
    7.2402   15.8816   -0.9423 H   0  0  0  0  0  0  0  0  0  0  0  0
    6.6916   10.8682    1.4400 H   0  0  0  0  0  0  0  0  0  0  0  0
    4.4763   10.1435    0.7153 H   0  0  0  0  0  0  0  0  0  0  0  0
    4.6388    6.3026   -1.8413 H   0  0  0  0  0  0  0  0  0  0  0  0
    3.9011    7.4308    0.1979 H   0  0  0  0  0  0  0  0  0  0  0  0
    7.8542    6.0618    2.1523 H   0  0  0  0  0  0  0  0  0  0  0  0
    6.3952    7.9723    2.6223 H   0  0  0  0  0  0  0  0  0  0  0  0
    8.6877    8.3324    1.8293 H   0  0  0  0  0  0  0  0  0  0  0  0
    8.1419    5.2596   -0.8804 H   0  0  0  0  0  0  0  0  0  0  0  0
    5.0506    4.9048    2.0807 H   0  0  0  0  0  0  0  0  0  0  0  0
    5.9617    3.7941    0.1132 H   0  0  0  0  0  0  0  0  0  0  0  0
    2.1693    4.4577   -0.6797 H   0  0  0  0  0  0  0  0  0  0  0  0
    1.0505    0.0085    0.1717 H   0  0  0  0  0  0  0  0  0  0  0  0
    0.0000    2.1874   -0.1980 H   0  0  0  0  0  0  0  0  0  0  0  0
    0.0785    1.2299    2.0529 H   0  0  0  0  0  0  0  0  0  0  0  0
    3.2263    0.0000    2.8375 H   0  0  0  0  0  0  0  0  0  0  0  0
    3.9941    2.1798    3.6430 H   0  0  0  0  0  0  0  0  0  0  0  0
    5.1631    1.0814    1.8024 H   0  0  0  0  0  0  0  0  0  0  0  0
  1  2  1  0  0  0  0
  1  3  2  0  0  0  0
  1 17  1  6  0  0  0
  2  4  1  0  0  0  0
  2 18  1  1  0  0  0
  2 19  1  6  0  0  0
  3  5  1  1  0  0  0
  3  6  1  0  0  0  0
  4  7  1  1  0  0  0
  4  8  1  0  0  0  0
  4 20  1  6  0  0  0
  5  7  1  1  0  0  0
  5 21  1  6  0  0  0
  5 22  1  1  0  0  0
  6 23  1  6  0  0  0
  6 24  1  6  0  0  0
  6 25  1  1  0  0  0
  7 26  1  1  0  0  0
  7 27  1  0  0  0  0
  8  9  1  0  0  0  0
  8 10  1  1  0  0  0
  8 11  1  6  0  0  0
  9 12  1  1  0  0  0
  9 28  1  6  0  0  0
  9 29  1  0  0  0  0
 10 30  1  0  0  0  0
 10 31  1  1  0  0  0
 10 32  1  0  0  0  0
 11 33  1  0  0  0  0
 12 13  1  0  0  0  0
 12 34  1  1  0  0  0
 12 35  1  0  0  0  0
 13 14  2  0  0  0  0
 13 36  1  6  0  0  0
 14 15  1  0  0  0  0
 14 16  1  1  0  0  0
 15 37  1  0  0  0  0
 15 38  1  6  0  0  0
 15 39  1  1  0  0  0
 16 40  1  0  0  0  0
 16 41  1  1  0  0  0
 16 42  1  0  0  0  0
M  END
>  <Formula> (86)
C15H26O

>  <Name> (86)
(R*,R*)-ALPHA,4-DIMETHYL-ALPHA-(4-METHYL-3-PENTENYL)-3-CYCLOHEXENE-1-METHANOL

>  <CAS-Nr> (86)
515-69-5

>  <EINECS> (86)
208-205-9

>  <LD50-rat-oral> (86)
14850

>  <Compound classification> (86)
Sesquiterpene

>  <Microorganism> (86)
Bacillus subtilis

>  <Microorganism type> (86)
L-2

>  <Microorganism classification> (86)
Bac+

>  <MMC> (86)
16

>  <Method abbreviation> (86)
SDT

>  <Ref-Nr> (86)
1284

>  <Marker> (86)
0

>  <Method> (86)
Serial dilution test; method in Russian - not translated

>  <Reference> (86)
Makarenko, N.G., Shmidt, E.N., Raldugin, V.O., Dubovenko, Zh.V.: Studies in Antimicrobic Properties of a Series of Plant Terpenoids and Their Synthetic Derivatives; Mikrobiologichny Zhurnal 42, 98-102 (1980)

>  <mol_id> (86)
180

>  <LD50-mouse-oral> (86)
11350

>  <MolWeight> (86)
222.36

>  <Nickname> (86)
alpha-Bisabolol

>  <other Names> (86)
Dragosantol, (-)-alpha-Bisabolol

$$$$

csChmFindW11180110282D

 42 42  0  0  0  0  0  0  0  0999 V2000
   14.4209    3.3233    5.4483 C   0  0  0  0  0  0  0  0  0  0  0  0
   15.6024    2.2152    4.5094 C   0  0  0  0  0  0  0  0  0  0  0  0
   14.1608    5.0711    4.8580 C   0  0  0  0  0  0  0  0  0  0  0  0
   16.4912    2.8568    2.9868 C   0  0  0  0  0  0  0  0  0  0  0  0
   15.8195    0.5010    5.1090 O   0  0  0  0  0  0  0  0  0  0  0  0
   15.0614    5.7494    3.3733 C   0  0  0  0  0  0  0  0  0  0  0  0
   12.9565    6.2569    5.8820 C   0  0  0  0  0  0  0  0  0  0  0  0
   16.2409    4.6351    2.4406 C   0  0  0  0  0  0  0  0  0  0  0  0
   17.7231    1.7911    2.1163 O   0  0  0  0  0  0  0  0  0  0  0  0
   11.2428    6.5561    5.3158 O   0  0  0  0  0  0  0  0  0  0  0  0
   13.3149    7.0585    7.2684 O   0  0  0  0  0  0  0  0  0  0  0  0
   17.0956    5.3309    0.9811 O   0  0  0  0  0  0  0  0  0  0  0  0
   10.6729    5.6612    3.7232 C   0  0  0  0  0  0  0  0  0  0  0  0
    8.8207    6.3722    3.3146 C   0  0  0  0  0  0  0  0  0  0  0  0
    8.0528    5.4367    1.6991 C   0  0  0  0  0  0  0  0  0  0  0  0
    6.1922    6.1087    1.2910 C   0  0  0  0  0  0  0  0  0  0  0  0
    5.4158    5.1777   -0.3242 C   0  0  0  0  0  0  0  0  0  0  0  0
    3.5470    5.8338   -0.7192 C   0  0  0  0  0  0  0  0  0  0  0  0
    2.7675    4.9061   -2.3353 C   0  0  0  0  0  0  0  0  0  0  0  0
    0.9024    5.5469   -2.7263 C   0  0  0  0  0  0  0  0  0  0  0  0
   13.7344    2.8080    6.6386 H   0  0  0  0  0  0  0  0  0  0  0  0
   16.8508    0.0000    4.5026 H   0  0  0  0  0  0  0  0  0  0  0  0
   14.8752    7.1369    2.9337 H   0  0  0  0  0  0  0  0  0  0  0  0
   17.0611    1.1441    1.2102 H   0  0  0  0  0  0  0  0  0  0  0  0
   18.0263    4.4966    0.6347 H   0  0  0  0  0  0  0  0  0  0  0  0
   10.6455    4.1870    3.9800 H   0  0  0  0  0  0  0  0  0  0  0  0
   11.6279    5.9579    2.6095 H   0  0  0  0  0  0  0  0  0  0  0  0
    8.8964    7.8468    3.0736 H   0  0  0  0  0  0  0  0  0  0  0  0
    7.9371    6.1645    4.5042 H   0  0  0  0  0  0  0  0  0  0  0  0
    8.0098    3.9599    1.9429 H   0  0  0  0  0  0  0  0  0  0  0  0
    8.9396    5.6642    0.5144 H   0  0  0  0  0  0  0  0  0  0  0  0
    6.2335    7.5854    1.0482 H   0  0  0  0  0  0  0  0  0  0  0  0
    5.3058    5.8815    2.4760 H   0  0  0  0  0  0  0  0  0  0  0  0
    5.3884    3.6996   -0.0878 H   0  0  0  0  0  0  0  0  0  0  0  0
    6.2935    5.4178   -1.5133 H   0  0  0  0  0  0  0  0  0  0  0  0
    3.5724    7.3121   -0.9543 H   0  0  0  0  0  0  0  0  0  0  0  0
    2.6684    5.5922    0.4686 H   0  0  0  0  0  0  0  0  0  0  0  0
    2.7519    3.4271   -2.1018 H   0  0  0  0  0  0  0  0  0  0  0  0
    3.6439    5.1545   -3.5238 H   0  0  0  0  0  0  0  0  0  0  0  0
    0.3557    4.8474   -3.9229 H   0  0  0  0  0  0  0  0  0  0  0  0
    0.8939    7.0131   -2.9934 H   0  0  0  0  0  0  0  0  0  0  0  0
    0.0000    5.2786   -1.5712 H   0  0  0  0  0  0  0  0  0  0  0  0
  1  2  2  0  0  0  0
  1  3  1  0  0  0  0
  1 21  1  1  0  0  0
  2  4  1  6  0  0  0
  2  5  1  0  0  0  0
  3  6  2  0  0  0  0
  3  7  1  1  0  0  0
  4  8  2  0  0  0  0
  4  9  1  6  0  0  0
  5 22  1  6  0  0  0
  6  8  1  6  0  0  0
  6 23  1  0  0  0  0
  7 10  1  0  0  0  0
  7 11  2  0  0  0  0
  8 12  1  6  0  0  0
  9 24  1  6  0  0  0
 10 13  1  6  0  0  0
 12 25  1  0  0  0  0
 13 14  1  0  0  0  0
 13 26  1  0  0  0  0
 13 27  1  6  0  0  0
 14 15  1  6  0  0  0
 14 28  1  0  0  0  0
 14 29  1  1  0  0  0
 15 16  1  0  0  0  0
 15 30  1  0  0  0  0
 15 31  1  6  0  0  0
 16 17  1  6  0  0  0
 16 32  1  0  0  0  0
 16 33  1  1  0  0  0
 17 18  1  0  0  0  0
 17 34  1  0  0  0  0
 17 35  1  6  0  0  0
 18 19  1  6  0  0  0
 18 36  1  0  0  0  0
 18 37  1  1  0  0  0
 19 20  1  0  0  0  0
 19 38  1  0  0  0  0
 19 39  1  6  0  0  0
 20 40  1  6  0  0  0
 20 41  1  0  0  0  0
 20 42  1  1  0  0  0
M  END
>  <Formula> (87)
C15H22O5

>  <Name> (87)
3,4,5-TRIHYDROXY-BENZOIC ACID, OCTYL ESTER

>  <CAS-Nr> (87)
1034-01-1

>  <EINECS> (87)
213-853-0

>  <21 CFR> (87)
166.110

>  <LD50-rat-oral> (87)
1960

>  <Compound classification> (87)
Ar-COOR

>  <Microorganism> (87)
Micrococcus luteus

>  <Microorganism type> (87)
ATCC 6538 P

>  <Publication strain name> (87)
Sarcina lutea

>  <Microorganism classification> (87)
Bac+

>  <ADT evaluation> (87)
3

>  <Method abbreviation> (87)
ADT

>  <Ref-Nr> (87)
1301

>  <Marker> (87)
0

>  <Method> (87)
Agar diffusion test; Medium: TSA, MES, LBS agar; Inoculum size: ---; hole diameter: 8mm; Incubation temperature: 30-37 degrees Centigrade; Incubation time: 24-48h; compound dose: 0.10 ml per hole, soluted in ethanol

>  <Reference> (87)
Castagnetti, P., Barbuti, S., Cassolari, S.B.A.: Attivita degli antiossidanti nei confronti del microrganismi; Industria conserve 58, 3-6 (1983)

>  <mol_id> (87)
1246

>  <MolWeight> (87)
282.33

>  <Nickname> (87)
Octyl gallate

>  <other Names> (87)
Gallic acid octyl ester

$$$$

csChmFindW11180110282D

 42 42  0  0  0  0  0  0  0  0999 V2000
   14.4209    3.3233    5.4483 C   0  0  0  0  0  0  0  0  0  0  0  0
   15.6024    2.2152    4.5094 C   0  0  0  0  0  0  0  0  0  0  0  0
   14.1608    5.0711    4.8580 C   0  0  0  0  0  0  0  0  0  0  0  0
   16.4912    2.8568    2.9868 C   0  0  0  0  0  0  0  0  0  0  0  0
   15.8195    0.5010    5.1090 O   0  0  0  0  0  0  0  0  0  0  0  0
   15.0614    5.7494    3.3733 C   0  0  0  0  0  0  0  0  0  0  0  0
   12.9565    6.2569    5.8820 C   0  0  0  0  0  0  0  0  0  0  0  0
   16.2409    4.6351    2.4406 C   0  0  0  0  0  0  0  0  0  0  0  0
   17.7231    1.7911    2.1163 O   0  0  0  0  0  0  0  0  0  0  0  0
   11.2428    6.5561    5.3158 O   0  0  0  0  0  0  0  0  0  0  0  0
   13.3149    7.0585    7.2684 O   0  0  0  0  0  0  0  0  0  0  0  0
   17.0956    5.3309    0.9811 O   0  0  0  0  0  0  0  0  0  0  0  0
   10.6729    5.6612    3.7232 C   0  0  0  0  0  0  0  0  0  0  0  0
    8.8207    6.3722    3.3146 C   0  0  0  0  0  0  0  0  0  0  0  0
    8.0528    5.4367    1.6991 C   0  0  0  0  0  0  0  0  0  0  0  0
    6.1922    6.1087    1.2910 C   0  0  0  0  0  0  0  0  0  0  0  0
    5.4158    5.1777   -0.3242 C   0  0  0  0  0  0  0  0  0  0  0  0
    3.5470    5.8338   -0.7192 C   0  0  0  0  0  0  0  0  0  0  0  0
    2.7675    4.9061   -2.3353 C   0  0  0  0  0  0  0  0  0  0  0  0
    0.9024    5.5469   -2.7263 C   0  0  0  0  0  0  0  0  0  0  0  0
   13.7344    2.8080    6.6386 H   0  0  0  0  0  0  0  0  0  0  0  0
   16.8508    0.0000    4.5026 H   0  0  0  0  0  0  0  0  0  0  0  0
   14.8752    7.1369    2.9337 H   0  0  0  0  0  0  0  0  0  0  0  0
   17.0611    1.1441    1.2102 H   0  0  0  0  0  0  0  0  0  0  0  0
   18.0263    4.4966    0.6347 H   0  0  0  0  0  0  0  0  0  0  0  0
   10.6455    4.1870    3.9800 H   0  0  0  0  0  0  0  0  0  0  0  0
   11.6279    5.9579    2.6095 H   0  0  0  0  0  0  0  0  0  0  0  0
    8.8964    7.8468    3.0736 H   0  0  0  0  0  0  0  0  0  0  0  0
    7.9371    6.1645    4.5042 H   0  0  0  0  0  0  0  0  0  0  0  0
    8.0098    3.9599    1.9429 H   0  0  0  0  0  0  0  0  0  0  0  0
    8.9396    5.6642    0.5144 H   0  0  0  0  0  0  0  0  0  0  0  0
    6.2335    7.5854    1.0482 H   0  0  0  0  0  0  0  0  0  0  0  0
    5.3058    5.8815    2.4760 H   0  0  0  0  0  0  0  0  0  0  0  0
    5.3884    3.6996   -0.0878 H   0  0  0  0  0  0  0  0  0  0  0  0
    6.2935    5.4178   -1.5133 H   0  0  0  0  0  0  0  0  0  0  0  0
    3.5724    7.3121   -0.9543 H   0  0  0  0  0  0  0  0  0  0  0  0
    2.6684    5.5922    0.4686 H   0  0  0  0  0  0  0  0  0  0  0  0
    2.7519    3.4271   -2.1018 H   0  0  0  0  0  0  0  0  0  0  0  0
    3.6439    5.1545   -3.5238 H   0  0  0  0  0  0  0  0  0  0  0  0
    0.3557    4.8474   -3.9229 H   0  0  0  0  0  0  0  0  0  0  0  0
    0.8939    7.0131   -2.9934 H   0  0  0  0  0  0  0  0  0  0  0  0
    0.0000    5.2786   -1.5712 H   0  0  0  0  0  0  0  0  0  0  0  0
  1  2  2  0  0  0  0
  1  3  1  0  0  0  0
  1 21  1  1  0  0  0
  2  4  1  6  0  0  0
  2  5  1  0  0  0  0
  3  6  2  0  0  0  0
  3  7  1  1  0  0  0
  4  8  2  0  0  0  0
  4  9  1  6  0  0  0
  5 22  1  6  0  0  0
  6  8  1  6  0  0  0
  6 23  1  0  0  0  0
  7 10  1  0  0  0  0
  7 11  2  0  0  0  0
  8 12  1  6  0  0  0
  9 24  1  6  0  0  0
 10 13  1  6  0  0  0
 12 25  1  0  0  0  0
 13 14  1  0  0  0  0
 13 26  1  0  0  0  0
 13 27  1  6  0  0  0
 14 15  1  6  0  0  0
 14 28  1  0  0  0  0
 14 29  1  1  0  0  0
 15 16  1  0  0  0  0
 15 30  1  0  0  0  0
 15 31  1  6  0  0  0
 16 17  1  6  0  0  0
 16 32  1  0  0  0  0
 16 33  1  1  0  0  0
 17 18  1  0  0  0  0
 17 34  1  0  0  0  0
 17 35  1  6  0  0  0
 18 19  1  6  0  0  0
 18 36  1  0  0  0  0
 18 37  1  1  0  0  0
 19 20  1  0  0  0  0
 19 38  1  0  0  0  0
 19 39  1  6  0  0  0
 20 40  1  6  0  0  0
 20 41  1  0  0  0  0
 20 42  1  1  0  0  0
M  END
>  <Formula> (88)
C15H22O5

>  <Name> (88)
3,4,5-TRIHYDROXY-BENZOIC ACID, OCTYL ESTER

>  <CAS-Nr> (88)
1034-01-1

>  <EINECS> (88)
213-853-0

>  <21 CFR> (88)
166.110

>  <LD50-rat-oral> (88)
1960

>  <Compound classification> (88)
Ar-COOR

>  <Microorganism> (88)
Micrococcus luteus

>  <Microorganism type> (88)
ATCC 4698

>  <Publication strain name> (88)
Micrococcus lysodeikticus

>  <Microorganism classification> (88)
Bac+

>  <ADT evaluation> (88)
3

>  <Method abbreviation> (88)
ADT

>  <Ref-Nr> (88)
1301

>  <Marker> (88)
0

>  <Method> (88)
Agar diffusion test; Medium: TSA, MES, LBS agar; Inoculum size: ---; hole diameter: 8mm; Incubation temperature: 30-37 degrees Centigrade; Incubation time: 24-48h; compound dose: 0.10 ml per hole, soluted in ethanol

>  <Reference> (88)
Castagnetti, P., Barbuti, S., Cassolari, S.B.A.: Attivita degli antiossidanti nei confronti del microrganismi; Industria conserve 58, 3-6 (1983)

>  <mol_id> (88)
1246

>  <MolWeight> (88)
282.33

>  <Nickname> (88)
Octyl gallate

>  <other Names> (88)
Gallic acid octyl ester

$$$$

csChmFindW11180110282D

 42 42  0  0  0  0  0  0  0  0999 V2000
   14.4209    3.3233    5.4483 C   0  0  0  0  0  0  0  0  0  0  0  0
   15.6024    2.2152    4.5094 C   0  0  0  0  0  0  0  0  0  0  0  0
   14.1608    5.0711    4.8580 C   0  0  0  0  0  0  0  0  0  0  0  0
   16.4912    2.8568    2.9868 C   0  0  0  0  0  0  0  0  0  0  0  0
   15.8195    0.5010    5.1090 O   0  0  0  0  0  0  0  0  0  0  0  0
   15.0614    5.7494    3.3733 C   0  0  0  0  0  0  0  0  0  0  0  0
   12.9565    6.2569    5.8820 C   0  0  0  0  0  0  0  0  0  0  0  0
   16.2409    4.6351    2.4406 C   0  0  0  0  0  0  0  0  0  0  0  0
   17.7231    1.7911    2.1163 O   0  0  0  0  0  0  0  0  0  0  0  0
   11.2428    6.5561    5.3158 O   0  0  0  0  0  0  0  0  0  0  0  0
   13.3149    7.0585    7.2684 O   0  0  0  0  0  0  0  0  0  0  0  0
   17.0956    5.3309    0.9811 O   0  0  0  0  0  0  0  0  0  0  0  0
   10.6729    5.6612    3.7232 C   0  0  0  0  0  0  0  0  0  0  0  0
    8.8207    6.3722    3.3146 C   0  0  0  0  0  0  0  0  0  0  0  0
    8.0528    5.4367    1.6991 C   0  0  0  0  0  0  0  0  0  0  0  0
    6.1922    6.1087    1.2910 C   0  0  0  0  0  0  0  0  0  0  0  0
    5.4158    5.1777   -0.3242 C   0  0  0  0  0  0  0  0  0  0  0  0
    3.5470    5.8338   -0.7192 C   0  0  0  0  0  0  0  0  0  0  0  0
    2.7675    4.9061   -2.3353 C   0  0  0  0  0  0  0  0  0  0  0  0
    0.9024    5.5469   -2.7263 C   0  0  0  0  0  0  0  0  0  0  0  0
   13.7344    2.8080    6.6386 H   0  0  0  0  0  0  0  0  0  0  0  0
   16.8508    0.0000    4.5026 H   0  0  0  0  0  0  0  0  0  0  0  0
   14.8752    7.1369    2.9337 H   0  0  0  0  0  0  0  0  0  0  0  0
   17.0611    1.1441    1.2102 H   0  0  0  0  0  0  0  0  0  0  0  0
   18.0263    4.4966    0.6347 H   0  0  0  0  0  0  0  0  0  0  0  0
   10.6455    4.1870    3.9800 H   0  0  0  0  0  0  0  0  0  0  0  0
   11.6279    5.9579    2.6095 H   0  0  0  0  0  0  0  0  0  0  0  0
    8.8964    7.8468    3.0736 H   0  0  0  0  0  0  0  0  0  0  0  0
    7.9371    6.1645    4.5042 H   0  0  0  0  0  0  0  0  0  0  0  0
    8.0098    3.9599    1.9429 H   0  0  0  0  0  0  0  0  0  0  0  0
    8.9396    5.6642    0.5144 H   0  0  0  0  0  0  0  0  0  0  0  0
    6.2335    7.5854    1.0482 H   0  0  0  0  0  0  0  0  0  0  0  0
    5.3058    5.8815    2.4760 H   0  0  0  0  0  0  0  0  0  0  0  0
    5.3884    3.6996   -0.0878 H   0  0  0  0  0  0  0  0  0  0  0  0
    6.2935    5.4178   -1.5133 H   0  0  0  0  0  0  0  0  0  0  0  0
    3.5724    7.3121   -0.9543 H   0  0  0  0  0  0  0  0  0  0  0  0
    2.6684    5.5922    0.4686 H   0  0  0  0  0  0  0  0  0  0  0  0
    2.7519    3.4271   -2.1018 H   0  0  0  0  0  0  0  0  0  0  0  0
    3.6439    5.1545   -3.5238 H   0  0  0  0  0  0  0  0  0  0  0  0
    0.3557    4.8474   -3.9229 H   0  0  0  0  0  0  0  0  0  0  0  0
    0.8939    7.0131   -2.9934 H   0  0  0  0  0  0  0  0  0  0  0  0
    0.0000    5.2786   -1.5712 H   0  0  0  0  0  0  0  0  0  0  0  0
  1  2  2  0  0  0  0
  1  3  1  0  0  0  0
  1 21  1  1  0  0  0
  2  4  1  6  0  0  0
  2  5  1  0  0  0  0
  3  6  2  0  0  0  0
  3  7  1  1  0  0  0
  4  8  2  0  0  0  0
  4  9  1  6  0  0  0
  5 22  1  6  0  0  0
  6  8  1  6  0  0  0
  6 23  1  0  0  0  0
  7 10  1  0  0  0  0
  7 11  2  0  0  0  0
  8 12  1  6  0  0  0
  9 24  1  6  0  0  0
 10 13  1  6  0  0  0
 12 25  1  0  0  0  0
 13 14  1  0  0  0  0
 13 26  1  0  0  0  0
 13 27  1  6  0  0  0
 14 15  1  6  0  0  0
 14 28  1  0  0  0  0
 14 29  1  1  0  0  0
 15 16  1  0  0  0  0
 15 30  1  0  0  0  0
 15 31  1  6  0  0  0
 16 17  1  6  0  0  0
 16 32  1  0  0  0  0
 16 33  1  1  0  0  0
 17 18  1  0  0  0  0
 17 34  1  0  0  0  0
 17 35  1  6  0  0  0
 18 19  1  6  0  0  0
 18 36  1  0  0  0  0
 18 37  1  1  0  0  0
 19 20  1  0  0  0  0
 19 38  1  0  0  0  0
 19 39  1  6  0  0  0
 20 40  1  6  0  0  0
 20 41  1  0  0  0  0
 20 42  1  1  0  0  0
M  END
>  <Formula> (89)
C15H22O5

>  <Name> (89)
3,4,5-TRIHYDROXY-BENZOIC ACID, OCTYL ESTER

>  <CAS-Nr> (89)
1034-01-1

>  <EINECS> (89)
213-853-0

>  <21 CFR> (89)
166.110

>  <LD50-rat-oral> (89)
1960

>  <Compound classification> (89)
Ar-COOR

>  <Microorganism> (89)
Micrococcus sp.

>  <Microorganism type> (89)
A  2/2

>  <Microorganism classification> (89)
Bac+

>  <ADT evaluation> (89)
3

>  <Method abbreviation> (89)
ADT

>  <Ref-Nr> (89)
1301

>  <Marker> (89)
0

>  <Method> (89)
Agar diffusion test; Medium: TSA, MES, LBS agar; Inoculum size: ---; hole diameter: 8mm; Incubation temperature: 30-37 degrees Centigrade; Incubation time: 24-48h; compound dose: 0.10 ml per hole, soluted in ethanol

>  <Reference> (89)
Castagnetti, P., Barbuti, S., Cassolari, S.B.A.: Attivita degli antiossidanti nei confronti del microrganismi; Industria conserve 58, 3-6 (1983)

>  <mol_id> (89)
1246

>  <MolWeight> (89)
282.33

>  <Nickname> (89)
Octyl gallate

>  <other Names> (89)
Gallic acid octyl ester

$$$$

csChmFindW11180110282D

 42 42  0  0  0  0  0  0  0  0999 V2000
   14.4209    3.3233    5.4483 C   0  0  0  0  0  0  0  0  0  0  0  0
   15.6024    2.2152    4.5094 C   0  0  0  0  0  0  0  0  0  0  0  0
   14.1608    5.0711    4.8580 C   0  0  0  0  0  0  0  0  0  0  0  0
   16.4912    2.8568    2.9868 C   0  0  0  0  0  0  0  0  0  0  0  0
   15.8195    0.5010    5.1090 O   0  0  0  0  0  0  0  0  0  0  0  0
   15.0614    5.7494    3.3733 C   0  0  0  0  0  0  0  0  0  0  0  0
   12.9565    6.2569    5.8820 C   0  0  0  0  0  0  0  0  0  0  0  0
   16.2409    4.6351    2.4406 C   0  0  0  0  0  0  0  0  0  0  0  0
   17.7231    1.7911    2.1163 O   0  0  0  0  0  0  0  0  0  0  0  0
   11.2428    6.5561    5.3158 O   0  0  0  0  0  0  0  0  0  0  0  0
   13.3149    7.0585    7.2684 O   0  0  0  0  0  0  0  0  0  0  0  0
   17.0956    5.3309    0.9811 O   0  0  0  0  0  0  0  0  0  0  0  0
   10.6729    5.6612    3.7232 C   0  0  0  0  0  0  0  0  0  0  0  0
    8.8207    6.3722    3.3146 C   0  0  0  0  0  0  0  0  0  0  0  0
    8.0528    5.4367    1.6991 C   0  0  0  0  0  0  0  0  0  0  0  0
    6.1922    6.1087    1.2910 C   0  0  0  0  0  0  0  0  0  0  0  0
    5.4158    5.1777   -0.3242 C   0  0  0  0  0  0  0  0  0  0  0  0
    3.5470    5.8338   -0.7192 C   0  0  0  0  0  0  0  0  0  0  0  0
    2.7675    4.9061   -2.3353 C   0  0  0  0  0  0  0  0  0  0  0  0
    0.9024    5.5469   -2.7263 C   0  0  0  0  0  0  0  0  0  0  0  0
   13.7344    2.8080    6.6386 H   0  0  0  0  0  0  0  0  0  0  0  0
   16.8508    0.0000    4.5026 H   0  0  0  0  0  0  0  0  0  0  0  0
   14.8752    7.1369    2.9337 H   0  0  0  0  0  0  0  0  0  0  0  0
   17.0611    1.1441    1.2102 H   0  0  0  0  0  0  0  0  0  0  0  0
   18.0263    4.4966    0.6347 H   0  0  0  0  0  0  0  0  0  0  0  0
   10.6455    4.1870    3.9800 H   0  0  0  0  0  0  0  0  0  0  0  0
   11.6279    5.9579    2.6095 H   0  0  0  0  0  0  0  0  0  0  0  0
    8.8964    7.8468    3.0736 H   0  0  0  0  0  0  0  0  0  0  0  0
    7.9371    6.1645    4.5042 H   0  0  0  0  0  0  0  0  0  0  0  0
    8.0098    3.9599    1.9429 H   0  0  0  0  0  0  0  0  0  0  0  0
    8.9396    5.6642    0.5144 H   0  0  0  0  0  0  0  0  0  0  0  0
    6.2335    7.5854    1.0482 H   0  0  0  0  0  0  0  0  0  0  0  0
    5.3058    5.8815    2.4760 H   0  0  0  0  0  0  0  0  0  0  0  0
    5.3884    3.6996   -0.0878 H   0  0  0  0  0  0  0  0  0  0  0  0
    6.2935    5.4178   -1.5133 H   0  0  0  0  0  0  0  0  0  0  0  0
    3.5724    7.3121   -0.9543 H   0  0  0  0  0  0  0  0  0  0  0  0
    2.6684    5.5922    0.4686 H   0  0  0  0  0  0  0  0  0  0  0  0
    2.7519    3.4271   -2.1018 H   0  0  0  0  0  0  0  0  0  0  0  0
    3.6439    5.1545   -3.5238 H   0  0  0  0  0  0  0  0  0  0  0  0
    0.3557    4.8474   -3.9229 H   0  0  0  0  0  0  0  0  0  0  0  0
    0.8939    7.0131   -2.9934 H   0  0  0  0  0  0  0  0  0  0  0  0
    0.0000    5.2786   -1.5712 H   0  0  0  0  0  0  0  0  0  0  0  0
  1  2  2  0  0  0  0
  1  3  1  0  0  0  0
  1 21  1  1  0  0  0
  2  4  1  6  0  0  0
  2  5  1  0  0  0  0
  3  6  2  0  0  0  0
  3  7  1  1  0  0  0
  4  8  2  0  0  0  0
  4  9  1  6  0  0  0
  5 22  1  6  0  0  0
  6  8  1  6  0  0  0
  6 23  1  0  0  0  0
  7 10  1  0  0  0  0
  7 11  2  0  0  0  0
  8 12  1  6  0  0  0
  9 24  1  6  0  0  0
 10 13  1  6  0  0  0
 12 25  1  0  0  0  0
 13 14  1  0  0  0  0
 13 26  1  0  0  0  0
 13 27  1  6  0  0  0
 14 15  1  6  0  0  0
 14 28  1  0  0  0  0
 14 29  1  1  0  0  0
 15 16  1  0  0  0  0
 15 30  1  0  0  0  0
 15 31  1  6  0  0  0
 16 17  1  6  0  0  0
 16 32  1  0  0  0  0
 16 33  1  1  0  0  0
 17 18  1  0  0  0  0
 17 34  1  0  0  0  0
 17 35  1  6  0  0  0
 18 19  1  6  0  0  0
 18 36  1  0  0  0  0
 18 37  1  1  0  0  0
 19 20  1  0  0  0  0
 19 38  1  0  0  0  0
 19 39  1  6  0  0  0
 20 40  1  6  0  0  0
 20 41  1  0  0  0  0
 20 42  1  1  0  0  0
M  END
>  <Formula> (90)
C15H22O5

>  <Name> (90)
3,4,5-TRIHYDROXY-BENZOIC ACID, OCTYL ESTER

>  <CAS-Nr> (90)
1034-01-1

>  <EINECS> (90)
213-853-0

>  <21 CFR> (90)
166.110

>  <LD50-rat-oral> (90)
1960

>  <Compound classification> (90)
Ar-COOR

>  <Microorganism> (90)
Micrococcus sp.

>  <Microorganism type> (90)
C 3/3

>  <Microorganism classification> (90)
Bac+

>  <ADT evaluation> (90)
3

>  <Method abbreviation> (90)
ADT

>  <Ref-Nr> (90)
1301

>  <Marker> (90)
0

>  <Method> (90)
Agar diffusion test; Medium: TSA, MES, LBS agar; Inoculum size: ---; hole diameter: 8mm; Incubation temperature: 30-37 degrees Centigrade; Incubation time: 24-48h; compound dose: 0.10 ml per hole, soluted in ethanol

>  <Reference> (90)
Castagnetti, P., Barbuti, S., Cassolari, S.B.A.: Attivita degli antiossidanti nei confronti del microrganismi; Industria conserve 58, 3-6 (1983)

>  <mol_id> (90)
1246

>  <MolWeight> (90)
282.33

>  <Nickname> (90)
Octyl gallate

>  <other Names> (90)
Gallic acid octyl ester

$$$$

csChmFindW11180110282D

 42 42  0  0  0  0  0  0  0  0999 V2000
   14.4209    3.3233    5.4483 C   0  0  0  0  0  0  0  0  0  0  0  0
   15.6024    2.2152    4.5094 C   0  0  0  0  0  0  0  0  0  0  0  0
   14.1608    5.0711    4.8580 C   0  0  0  0  0  0  0  0  0  0  0  0
   16.4912    2.8568    2.9868 C   0  0  0  0  0  0  0  0  0  0  0  0
   15.8195    0.5010    5.1090 O   0  0  0  0  0  0  0  0  0  0  0  0
   15.0614    5.7494    3.3733 C   0  0  0  0  0  0  0  0  0  0  0  0
   12.9565    6.2569    5.8820 C   0  0  0  0  0  0  0  0  0  0  0  0
   16.2409    4.6351    2.4406 C   0  0  0  0  0  0  0  0  0  0  0  0
   17.7231    1.7911    2.1163 O   0  0  0  0  0  0  0  0  0  0  0  0
   11.2428    6.5561    5.3158 O   0  0  0  0  0  0  0  0  0  0  0  0
   13.3149    7.0585    7.2684 O   0  0  0  0  0  0  0  0  0  0  0  0
   17.0956    5.3309    0.9811 O   0  0  0  0  0  0  0  0  0  0  0  0
   10.6729    5.6612    3.7232 C   0  0  0  0  0  0  0  0  0  0  0  0
    8.8207    6.3722    3.3146 C   0  0  0  0  0  0  0  0  0  0  0  0
    8.0528    5.4367    1.6991 C   0  0  0  0  0  0  0  0  0  0  0  0
    6.1922    6.1087    1.2910 C   0  0  0  0  0  0  0  0  0  0  0  0
    5.4158    5.1777   -0.3242 C   0  0  0  0  0  0  0  0  0  0  0  0
    3.5470    5.8338   -0.7192 C   0  0  0  0  0  0  0  0  0  0  0  0
    2.7675    4.9061   -2.3353 C   0  0  0  0  0  0  0  0  0  0  0  0
    0.9024    5.5469   -2.7263 C   0  0  0  0  0  0  0  0  0  0  0  0
   13.7344    2.8080    6.6386 H   0  0  0  0  0  0  0  0  0  0  0  0
   16.8508    0.0000    4.5026 H   0  0  0  0  0  0  0  0  0  0  0  0
   14.8752    7.1369    2.9337 H   0  0  0  0  0  0  0  0  0  0  0  0
   17.0611    1.1441    1.2102 H   0  0  0  0  0  0  0  0  0  0  0  0
   18.0263    4.4966    0.6347 H   0  0  0  0  0  0  0  0  0  0  0  0
   10.6455    4.1870    3.9800 H   0  0  0  0  0  0  0  0  0  0  0  0
   11.6279    5.9579    2.6095 H   0  0  0  0  0  0  0  0  0  0  0  0
    8.8964    7.8468    3.0736 H   0  0  0  0  0  0  0  0  0  0  0  0
    7.9371    6.1645    4.5042 H   0  0  0  0  0  0  0  0  0  0  0  0
    8.0098    3.9599    1.9429 H   0  0  0  0  0  0  0  0  0  0  0  0
    8.9396    5.6642    0.5144 H   0  0  0  0  0  0  0  0  0  0  0  0
    6.2335    7.5854    1.0482 H   0  0  0  0  0  0  0  0  0  0  0  0
    5.3058    5.8815    2.4760 H   0  0  0  0  0  0  0  0  0  0  0  0
    5.3884    3.6996   -0.0878 H   0  0  0  0  0  0  0  0  0  0  0  0
    6.2935    5.4178   -1.5133 H   0  0  0  0  0  0  0  0  0  0  0  0
    3.5724    7.3121   -0.9543 H   0  0  0  0  0  0  0  0  0  0  0  0
    2.6684    5.5922    0.4686 H   0  0  0  0  0  0  0  0  0  0  0  0
    2.7519    3.4271   -2.1018 H   0  0  0  0  0  0  0  0  0  0  0  0
    3.6439    5.1545   -3.5238 H   0  0  0  0  0  0  0  0  0  0  0  0
    0.3557    4.8474   -3.9229 H   0  0  0  0  0  0  0  0  0  0  0  0
    0.8939    7.0131   -2.9934 H   0  0  0  0  0  0  0  0  0  0  0  0
    0.0000    5.2786   -1.5712 H   0  0  0  0  0  0  0  0  0  0  0  0
  1  2  2  0  0  0  0
  1  3  1  0  0  0  0
  1 21  1  1  0  0  0
  2  4  1  6  0  0  0
  2  5  1  0  0  0  0
  3  6  2  0  0  0  0
  3  7  1  1  0  0  0
  4  8  2  0  0  0  0
  4  9  1  6  0  0  0
  5 22  1  6  0  0  0
  6  8  1  6  0  0  0
  6 23  1  0  0  0  0
  7 10  1  0  0  0  0
  7 11  2  0  0  0  0
  8 12  1  6  0  0  0
  9 24  1  6  0  0  0
 10 13  1  6  0  0  0
 12 25  1  0  0  0  0
 13 14  1  0  0  0  0
 13 26  1  0  0  0  0
 13 27  1  6  0  0  0
 14 15  1  6  0  0  0
 14 28  1  0  0  0  0
 14 29  1  1  0  0  0
 15 16  1  0  0  0  0
 15 30  1  0  0  0  0
 15 31  1  6  0  0  0
 16 17  1  6  0  0  0
 16 32  1  0  0  0  0
 16 33  1  1  0  0  0
 17 18  1  0  0  0  0
 17 34  1  0  0  0  0
 17 35  1  6  0  0  0
 18 19  1  6  0  0  0
 18 36  1  0  0  0  0
 18 37  1  1  0  0  0
 19 20  1  0  0  0  0
 19 38  1  0  0  0  0
 19 39  1  6  0  0  0
 20 40  1  6  0  0  0
 20 41  1  0  0  0  0
 20 42  1  1  0  0  0
M  END
>  <Formula> (91)
C15H22O5

>  <Name> (91)
3,4,5-TRIHYDROXY-BENZOIC ACID, OCTYL ESTER

>  <CAS-Nr> (91)
1034-01-1

>  <EINECS> (91)
213-853-0

>  <21 CFR> (91)
166.110

>  <LD50-rat-oral> (91)
1960

>  <Compound classification> (91)
Ar-COOR

>  <Microorganism> (91)
Micrococcus luteus

>  <Microorganism type> (91)
ATCC 10240

>  <Publication strain name> (91)
Micrococcus flavus

>  <Microorganism classification> (91)
Bac+

>  <ADT evaluation> (91)
3

>  <Method abbreviation> (91)
ADT

>  <Ref-Nr> (91)
1301

>  <Marker> (91)
0

>  <Method> (91)
Agar diffusion test; Medium: TSA, MES, LBS agar; Inoculum size: ---; hole diameter: 8mm; Incubation temperature: 30-37 degrees Centigrade; Incubation time: 24-48h; compound dose: 0.10 ml per hole, soluted in ethanol

>  <Reference> (91)
Castagnetti, P., Barbuti, S., Cassolari, S.B.A.: Attivita degli antiossidanti nei confronti del microrganismi; Industria conserve 58, 3-6 (1983)

>  <mol_id> (91)
1246

>  <MolWeight> (91)
282.33

>  <Nickname> (91)
Octyl gallate

>  <other Names> (91)
Gallic acid octyl ester

$$$$

csChmFindW11180110282D

 29 30  0  0  0  0  0  0  0  0999 V2000
    3.0840    4.5474   -0.2239 C   0  0  0  0  0  0  0  0  0  0  0  0
    1.2830    4.1887   -1.2987 C   0  0  0  0  0  0  0  0  0  0  0  0
    4.6659    4.0920   -1.5452 C   0  0  0  0  0  0  0  0  0  0  0  0
    3.1959    6.3930    0.6317 C   0  0  0  0  0  0  0  0  0  0  0  0
    3.1023    2.8552    1.0914 C   0  0  0  0  0  0  0  0  0  0  0  0
    1.2613    2.0877   -1.5408 C   0  0  0  0  0  0  0  0  0  0  0  0
    1.3272    5.1441   -2.9766 O   0  0  0  0  0  0  0  0  0  0  0  0
    4.6161    2.0001   -1.7054 C   0  0  0  0  0  0  0  0  0  0  0  0
    2.9772    1.4501   -0.5082 C   0  0  0  0  0  0  0  0  0  0  0  0
    4.8328    2.6854    2.2058 C   0  0  0  0  0  0  0  0  0  0  0  0
    1.5070    2.7691    2.3997 C   0  0  0  0  0  0  0  0  0  0  0  0
    0.0742    4.6692   -0.4883 H   0  0  0  0  0  0  0  0  0  0  0  0
    5.9937    4.5808   -0.9833 H   0  0  0  0  0  0  0  0  0  0  0  0
    4.4448    4.7626   -2.8952 H   0  0  0  0  0  0  0  0  0  0  0  0
    4.4973    6.5363    1.4131 H   0  0  0  0  0  0  0  0  0  0  0  0
    2.0297    6.6133    1.5886 H   0  0  0  0  0  0  0  0  0  0  0  0
    3.1480    7.4679   -0.4490 H   0  0  0  0  0  0  0  0  0  0  0  0
    1.3276    1.7066   -3.0140 H   0  0  0  0  0  0  0  0  0  0  0  0
    0.0000    1.4801   -0.9456 H   0  0  0  0  0  0  0  0  0  0  0  0
    0.2744    4.7453   -3.6581 H   0  0  0  0  0  0  0  0  0  0  0  0
    5.9017    1.3689   -1.1883 H   0  0  0  0  0  0  0  0  0  0  0  0
    4.4220    1.5554   -3.1483 H   0  0  0  0  0  0  0  0  0  0  0  0
    2.9560    0.0000   -0.0921 H   0  0  0  0  0  0  0  0  0  0  0  0
    4.8867    1.3118    2.8650 H   0  0  0  0  0  0  0  0  0  0  0  0
    4.8489    3.7499    3.2977 H   0  0  0  0  0  0  0  0  0  0  0  0
    6.0873    2.8582    1.3629 H   0  0  0  0  0  0  0  0  0  0  0  0
    1.6198    1.5201    3.2675 H   0  0  0  0  0  0  0  0  0  0  0  0
    0.1645    2.7225    1.6864 H   0  0  0  0  0  0  0  0  0  0  0  0
    1.5201    3.9930    3.3093 H   0  0  0  0  0  0  0  0  0  0  0  0
  1  2  1  6  0  0  0
  1  3  1  6  0  0  0
  1  4  1  0  0  0  0
  1  5  1  1  0  0  0
  2  6  1  0  0  0  0
  2  7  1  6  0  0  0
  2 12  1  1  0  0  0
  3  8  1  0  0  0  0
  3 13  1  0  0  0  0
  3 14  1  6  0  0  0
  4 15  1  1  0  0  0
  4 16  1  1  0  0  0
  4 17  1  6  0  0  0
  5  9  1  6  0  0  0
  5 10  1  1  0  0  0
  5 11  1  1  0  0  0
  6  9  1  1  0  0  0
  6 18  1  6  0  0  0
  6 19  1  0  0  0  0
  7 20  1  6  0  0  0
  8  9  1  1  0  0  0
  8 21  1  0  0  0  0
  8 22  1  6  0  0  0
  9 23  1  0  0  0  0
 10 24  1  0  0  0  0
 10 25  1  1  0  0  0
 10 26  1  6  0  0  0
 11 27  1  1  0  0  0
 11 28  1  6  0  0  0
 11 29  1  1  0  0  0
M  END
>  <Formula> (92)
C10H18O

>  <Name> (92)
(1R,2S,4R)-REL-1,7,7-TRIMETHYLBICYCLO[2.2.1]HEPTAN-2-OL

>  <CAS-Nr> (92)
507-70-0

>  <EINECS> (92)
208-080-0

>  <21 CFR> (92)
172.515

>  <LD50-rat-oral> (92)
500

>  <Compound classification> (92)
Monoterpene

>  <Microorganism> (92)
Eschericia coli

>  <Microorganism classification> (92)
Bac-

>  <Inhibition zone> (92)
13

>  <ADT evaluation> (92)
2

>  <Method abbreviation> (92)
ADT

>  <Ref-Nr> (92)
1337

>  <Marker> (92)
0

>  <Method> (92)
Agar diffusion test; Medium: Tween nutrient agar, Tween potato-dextrose agar; disk diameter: 10mm; method cited

>  <Reference> (92)
Megalla, S.E., El-Keltawi, N.E.M., Ross, S.S.: A Study of Antimicrobial Action of some Essential Oil Constituents; Herba Polonica 26, 181-6 (1980)

>  <mol_id> (92)
200

>  <LD50-mouse-oral> (92)
1059

>  <MolWeight> (92)
154.25

>  <Nickname> (92)
DL-Borneol

>  <other Names> (92)
Sumatra camphor, Camphol

$$$$

csChmFindW11180110282D

 27 28  0  0  0  0  0  0  0  0999 V2000
    2.9004    4.4099   -0.5349 C   0  0  0  0  0  0  0  0  0  0  0  0
    1.2040    3.8269   -1.5240 C   0  0  0  0  0  0  0  0  0  0  0  0
    4.4291    3.8959   -1.8253 C   0  0  0  0  0  0  0  0  0  0  0  0
    2.9248    6.2933    0.1026 C   0  0  0  0  0  0  0  0  0  0  0  0
    3.0330    2.9058    0.9152 C   0  0  0  0  0  0  0  0  0  0  0  0
    1.1940    1.7981   -1.4816 C   0  0  0  0  0  0  0  0  0  0  0  0
    0.0896    4.7933   -2.2265 O   0  0  0  0  0  0  0  0  0  0  0  0
    4.4617    1.8463   -1.7738 C   0  0  0  0  0  0  0  0  0  0  0  0
    2.9371    1.3619   -0.4857 C   0  0  0  0  0  0  0  0  0  0  0  0
    4.7447    2.9332    1.9749 C   0  0  0  0  0  0  0  0  0  0  0  0
    1.4828    2.9054    2.2060 C   0  0  0  0  0  0  0  0  0  0  0  0
    5.7151    4.4764   -1.3561 H   0  0  0  0  0  0  0  0  0  0  0  0
    4.1612    4.4086   -3.1954 H   0  0  0  0  0  0  0  0  0  0  0  0
    4.2524    6.6260    0.6890 H   0  0  0  0  0  0  0  0  0  0  0  0
    1.8798    6.4980    1.1443 H   0  0  0  0  0  0  0  0  0  0  0  0
    2.6491    7.2209   -1.0298 H   0  0  0  0  0  0  0  0  0  0  0  0
    1.1746    1.2371   -2.8591 H   0  0  0  0  0  0  0  0  0  0  0  0
    0.0000    1.2924   -0.7517 H   0  0  0  0  0  0  0  0  0  0  0  0
    5.7654    1.3361   -1.2720 H   0  0  0  0  0  0  0  0  0  0  0  0
    4.2330    1.2640   -3.1234 H   0  0  0  0  0  0  0  0  0  0  0  0
    3.0029    0.0000    0.0721 H   0  0  0  0  0  0  0  0  0  0  0  0
    4.7866    1.7584    2.8891 H   0  0  0  0  0  0  0  0  0  0  0  0
    4.8101    4.1760    2.7941 H   0  0  0  0  0  0  0  0  0  0  0  0
    5.9492    2.8912    1.1054 H   0  0  0  0  0  0  0  0  0  0  0  0
    1.3865    1.5805    2.8774 H   0  0  0  0  0  0  0  0  0  0  0  0
    0.1896    3.1864    1.5257 H   0  0  0  0  0  0  0  0  0  0  0  0
    1.6844    3.9511    3.2476 H   0  0  0  0  0  0  0  0  0  0  0  0
  1  2  1  6  0  0  0
  1  3  1  6  0  0  0
  1  4  1  0  0  0  0
  1  5  1  1  0  0  0
  2  6  1  0  0  0  0
  2  7  2  0  0  0  0
  3  8  1  0  0  0  0
  3 12  1  0  0  0  0
  3 13  1  6  0  0  0
  4 14  1  0  0  0  0
  4 15  1  1  0  0  0
  4 16  1  6  0  0  0
  5  9  1  6  0  0  0
  5 10  1  1  0  0  0
  5 11  1  1  0  0  0
  6  9  1  1  0  0  0
  6 17  1  6  0  0  0
  6 18  1  1  0  0  0
  8  9  1  1  0  0  0
  8 19  1  0  0  0  0
  8 20  1  6  0  0  0
  9 21  1  0  0  0  0
 10 22  1  1  0  0  0
 10 23  1  1  0  0  0
 10 24  1  6  0  0  0
 11 25  1  1  0  0  0
 11 26  1  6  0  0  0
 11 27  1  1  0  0  0
M  END
>  <Formula> (93)
C10H16O

>  <Name> (93)
1,7,7-TRIMETHYLBICYCLO[2.2.1]HEPTAN-2-ONE

>  <CAS-Nr> (93)
21368-68-3

>  <EINECS> (93)
200-945-0, 244-350-4

>  <21 CFR> (93)
172.515 (D-Camphor), 175.105

>  <LD50-rat-oral> (93)
3000

>  <Compound classification> (93)
Monoterpene

>  <Microorganism> (93)
Trichoderma viride

>  <Microorganism classification> (93)
fungi

>  <Inhibition zone> (93)
10

>  <ADT evaluation> (93)
1

>  <Method abbreviation> (93)
ADT

>  <Ref-Nr> (93)
1337

>  <Marker> (93)
0

>  <Method> (93)
Agar diffusion test; Medium: Tween nutrient agar, Tween potato-dextrose agar; disk diameter: 10mm; method cited

>  <Reference> (93)
Megalla, S.E., El-Keltawi, N.E.M., Ross, S.S.: A Study of Antimicrobial Action of some Essential Oil Constituents; Herba Polonica 26, 181-6 (1980)

>  <mol_id> (93)
212

>  <LD50-mouse-oral> (93)
1310

>  <LD50-mou-ip> (93)
884

>  <MolWeight> (93)
152.23

>  <Nickname> (93)
d,l-Camphor

>  <other Names> (93)
2-Camphanone, Caladryl, Bornan-2-one

$$$$

csChmFindW11180110282D

 29 30  0  0  0  0  0  0  0  0999 V2000
    3.0840    4.5474   -0.2239 C   0  0  0  0  0  0  0  0  0  0  0  0
    1.2830    4.1887   -1.2987 C   0  0  0  0  0  0  0  0  0  0  0  0
    4.6659    4.0920   -1.5452 C   0  0  0  0  0  0  0  0  0  0  0  0
    3.1959    6.3930    0.6317 C   0  0  0  0  0  0  0  0  0  0  0  0
    3.1023    2.8552    1.0914 C   0  0  0  0  0  0  0  0  0  0  0  0
    1.2613    2.0877   -1.5408 C   0  0  0  0  0  0  0  0  0  0  0  0
    1.3272    5.1441   -2.9766 O   0  0  0  0  0  0  0  0  0  0  0  0
    4.6161    2.0001   -1.7054 C   0  0  0  0  0  0  0  0  0  0  0  0
    2.9772    1.4501   -0.5082 C   0  0  0  0  0  0  0  0  0  0  0  0
    4.8328    2.6854    2.2058 C   0  0  0  0  0  0  0  0  0  0  0  0
    1.5070    2.7691    2.3997 C   0  0  0  0  0  0  0  0  0  0  0  0
    0.0742    4.6692   -0.4883 H   0  0  0  0  0  0  0  0  0  0  0  0
    5.9937    4.5808   -0.9833 H   0  0  0  0  0  0  0  0  0  0  0  0
    4.4448    4.7626   -2.8952 H   0  0  0  0  0  0  0  0  0  0  0  0
    4.4973    6.5363    1.4131 H   0  0  0  0  0  0  0  0  0  0  0  0
    2.0297    6.6133    1.5886 H   0  0  0  0  0  0  0  0  0  0  0  0
    3.1480    7.4679   -0.4490 H   0  0  0  0  0  0  0  0  0  0  0  0
    1.3276    1.7066   -3.0140 H   0  0  0  0  0  0  0  0  0  0  0  0
    0.0000    1.4801   -0.9456 H   0  0  0  0  0  0  0  0  0  0  0  0
    0.2744    4.7453   -3.6581 H   0  0  0  0  0  0  0  0  0  0  0  0
    5.9017    1.3689   -1.1883 H   0  0  0  0  0  0  0  0  0  0  0  0
    4.4220    1.5554   -3.1483 H   0  0  0  0  0  0  0  0  0  0  0  0
    2.9560    0.0000   -0.0921 H   0  0  0  0  0  0  0  0  0  0  0  0
    4.8867    1.3118    2.8650 H   0  0  0  0  0  0  0  0  0  0  0  0
    4.8489    3.7499    3.2977 H   0  0  0  0  0  0  0  0  0  0  0  0
    6.0873    2.8582    1.3629 H   0  0  0  0  0  0  0  0  0  0  0  0
    1.6198    1.5201    3.2675 H   0  0  0  0  0  0  0  0  0  0  0  0
    0.1645    2.7225    1.6864 H   0  0  0  0  0  0  0  0  0  0  0  0
    1.5201    3.9930    3.3093 H   0  0  0  0  0  0  0  0  0  0  0  0
  1  2  1  6  0  0  0
  1  3  1  6  0  0  0
  1  4  1  0  0  0  0
  1  5  1  1  0  0  0
  2  6  1  0  0  0  0
  2  7  1  6  0  0  0
  2 12  1  1  0  0  0
  3  8  1  0  0  0  0
  3 13  1  0  0  0  0
  3 14  1  6  0  0  0
  4 15  1  1  0  0  0
  4 16  1  1  0  0  0
  4 17  1  6  0  0  0
  5  9  1  6  0  0  0
  5 10  1  1  0  0  0
  5 11  1  1  0  0  0
  6  9  1  1  0  0  0
  6 18  1  6  0  0  0
  6 19  1  0  0  0  0
  7 20  1  6  0  0  0
  8  9  1  1  0  0  0
  8 21  1  0  0  0  0
  8 22  1  6  0  0  0
  9 23  1  0  0  0  0
 10 24  1  0  0  0  0
 10 25  1  1  0  0  0
 10 26  1  6  0  0  0
 11 27  1  1  0  0  0
 11 28  1  6  0  0  0
 11 29  1  1  0  0  0
M  END
>  <Formula> (94)
C10H18O

>  <Name> (94)
(1R,2S,4R)-REL-1,7,7-TRIMETHYLBICYCLO[2.2.1]HEPTAN-2-OL

>  <CAS-Nr> (94)
507-70-0

>  <EINECS> (94)
208-080-0

>  <21 CFR> (94)
172.515

>  <LD50-rat-oral> (94)
500

>  <Compound classification> (94)
Monoterpene

>  <Microorganism> (94)
Eschericia coli

>  <Microorganism classification> (94)
Bac-

>  <Inhibition zone> (94)
6

>  <ADT evaluation> (94)
2

>  <Method abbreviation> (94)
ADT

>  <Ref-Nr> (94)
1399

>  <Marker> (94)
0

>  <Method> (94)
Agar diffusion test; Medium: malat agar; Inoculum size: 1.5x10E8 bacteria/ml; disk diameter: 9 mm; Incubation temperature: 30 degrees Centigrade; Incubation time: 24-48h; compound dose: 20 microliter per disk

>  <Reference> (94)
Weigand, H.: Zur Wirkungweise von Terpenoiden auf den Energiestoffwechsel von Bakterien: Wirkung auf Photophosphorylierung. Licht- und NADH-induzierten Protonen-Gradienten und Charakterisierung der Terpenoid-Hemmkinetik bei Rhodspeudomonas spaeroides; Dissertation Erlangen, Germany (1986)

>  <mol_id> (94)
200

>  <LD50-mouse-oral> (94)
1059

>  <MolWeight> (94)
154.25

>  <Nickname> (94)
DL-Borneol

>  <other Names> (94)
Sumatra camphor, Camphol

$$$$

csChmFindW11180110282D

 34 33  0  0  0  0  0  0  0  0999 V2000
    7.1864    2.8461   -0.6484 C   0  0  0  0  0  0  0  0  0  0  0  0
    9.0219    3.6574   -0.5138 C   0  0  0  0  0  0  0  0  0  0  0  0
    5.8665    4.0473   -1.5122 C   0  0  0  0  0  0  0  0  0  0  0  0
   10.3096    2.4445    0.3450 C   0  0  0  0  0  0  0  0  0  0  0  0
    9.6995    4.2033   -2.3099 C   0  0  0  0  0  0  0  0  0  0  0  0
    8.7513    5.1844    0.5876 O   0  0  0  0  0  0  0  0  0  0  0  0
    4.0795    3.2923   -1.4907 C   0  0  0  0  0  0  0  0  0  0  0  0
    9.9904    0.8127    0.8593 C   0  0  0  0  0  0  0  0  0  0  0  0
   10.0941    6.2928    0.9756 C   0  0  0  0  0  0  0  0  0  0  0  0
    2.7249    3.9837   -2.3730 C   0  0  0  0  0  0  0  0  0  0  0  0
    9.5259    7.7475    2.1518 C   0  0  0  0  0  0  0  0  0  0  0  0
   11.5701    6.0399    0.3738 O   0  0  0  0  0  0  0  0  0  0  0  0
    0.9526    3.1941   -2.3103 C   0  0  0  0  0  0  0  0  0  0  0  0
    2.9075    5.5734   -3.4726 C   0  0  0  0  0  0  0  0  0  0  0  0
    7.3018    1.6018   -1.4184 H   0  0  0  0  0  0  0  0  0  0  0  0
    6.7265    2.5100    0.7052 H   0  0  0  0  0  0  0  0  0  0  0  0
    5.8602    5.3446   -0.8130 H   0  0  0  0  0  0  0  0  0  0  0  0
    6.2716    4.3146   -2.9029 H   0  0  0  0  0  0  0  0  0  0  0  0
   11.6203    3.0354    0.5152 H   0  0  0  0  0  0  0  0  0  0  0  0
   11.1251    4.5247   -2.2440 H   0  0  0  0  0  0  0  0  0  0  0  0
    9.4979    3.1136   -3.2610 H   0  0  0  0  0  0  0  0  0  0  0  0
    8.9781    5.3862   -2.7751 H   0  0  0  0  0  0  0  0  0  0  0  0
    3.9000    2.1068   -0.6876 H   0  0  0  0  0  0  0  0  0  0  0  0
   11.0161    0.0000    1.4579 H   0  0  0  0  0  0  0  0  0  0  0  0
    8.7144    0.1638    0.7301 H   0  0  0  0  0  0  0  0  0  0  0  0
    9.9295    9.0218    1.5578 H   0  0  0  0  0  0  0  0  0  0  0  0
    8.0774    7.7322    2.3464 H   0  0  0  0  0  0  0  0  0  0  0  0
   10.1906    7.5895    3.4458 H   0  0  0  0  0  0  0  0  0  0  0  0
    0.5016    2.8643   -3.6644 H   0  0  0  0  0  0  0  0  0  0  0  0
    0.9319    1.9723   -1.5058 H   0  0  0  0  0  0  0  0  0  0  0  0
    0.0000    4.1450   -1.7314 H   0  0  0  0  0  0  0  0  0  0  0  0
    1.6022    6.0795   -3.8962 H   0  0  0  0  0  0  0  0  0  0  0  0
    3.5997    6.6329   -2.7337 H   0  0  0  0  0  0  0  0  0  0  0  0
    3.6965    5.2696   -4.6702 H   0  0  0  0  0  0  0  0  0  0  0  0
  1  2  1  0  0  0  0
  1  3  1  0  0  0  0
  1 15  1  6  0  0  0
  1 16  1  1  0  0  0
  2  4  1  0  0  0  0
  2  5  1  6  0  0  0
  2  6  1  1  0  0  0
  3  7  1  0  0  0  0
  3 17  1  1  0  0  0
  3 18  1  6  0  0  0
  4  8  2  0  0  0  0
  4 19  1  0  0  0  0
  5 20  1  0  0  0  0
  5 21  1  6  0  0  0
  5 22  1  0  0  0  0
  6  9  1  0  0  0  0
  7 10  2  0  0  0  0
  7 23  1  1  0  0  0
  8 24  1  0  0  0  0
  8 25  1  0  0  0  0
  9 11  1  1  0  0  0
  9 12  2  0  0  0  0
 10 13  1  0  0  0  0
 10 14  1  6  0  0  0
 11 26  1  0  0  0  0
 11 27  1  0  0  0  0
 11 28  1  1  0  0  0
 13 29  1  6  0  0  0
 13 30  1  1  0  0  0
 13 31  1  0  0  0  0
 14 32  1  0  0  0  0
 14 33  1  1  0  0  0
 14 34  1  6  0  0  0
M  END
>  <Formula> (95)
C12H20O2

>  <Name> (95)
3,7-DIMETHYL-1,6-OCTADIEN-3-OL, ACETATE

>  <CAS-Nr> (95)
115-95-7

>  <EINECS> (95)
204-116-4, 254-806-4

>  <21 CFR> (95)
182.60, 582.60

>  <LD50-rat-oral> (95)
13934

>  <Compound classification> (95)
Monoterpene

>  <Microorganism> (95)
Candida utilis

>  <Microorganism type> (95)
ATCC 9226

>  <Microorganism classification> (95)
yeast

>  <NIC> (95)
800

>  <Method abbreviation> (95)
SDT

>  <Ref-Nr> (95)
1500

>  <Marker> (95)
0

>  <Method> (95)
Serial dilution test; Inoculum size: adjusted by optical density; Medium: bacteria in Nutrient broth + yeast-extract + glucose, S.mutans in brain heart infusion, fungi in malt broth, P.ovale in bactopeptone + yeast-extract + glucose, T.mentagrophytes in bactopeptone + glucose; pH: ; Incubation-temperature: 30-37 degrees Centigrade; Incubation-time: 2-5d; Solubility enhancer: N,N-dimethylformamid 1%

>  <Reference> (95)
Kubo, I., Himejima, M., Muroi, H.: Antimicrobial Activity of Flavor Components of Cardamom Elattaria cardamomum (Zingiberaceae) Seed; Journal of Agricultural and Food Chemistry 39, 1984-6 (1991)

>  <mol_id> (95)
269

>  <LD50-mouse-oral> (95)
12000

>  <MolWeight> (95)
196.28

>  <Nickname> (95)
Linalyl acetate

>  <other Names> (95)
Bergamol

$$$$

csChmFindW11180110282D

 34 33  0  0  0  0  0  0  0  0999 V2000
    7.1864    2.8461   -0.6484 C   0  0  0  0  0  0  0  0  0  0  0  0
    9.0219    3.6574   -0.5138 C   0  0  0  0  0  0  0  0  0  0  0  0
    5.8665    4.0473   -1.5122 C   0  0  0  0  0  0  0  0  0  0  0  0
   10.3096    2.4445    0.3450 C   0  0  0  0  0  0  0  0  0  0  0  0
    9.6995    4.2033   -2.3099 C   0  0  0  0  0  0  0  0  0  0  0  0
    8.7513    5.1844    0.5876 O   0  0  0  0  0  0  0  0  0  0  0  0
    4.0795    3.2923   -1.4907 C   0  0  0  0  0  0  0  0  0  0  0  0
    9.9904    0.8127    0.8593 C   0  0  0  0  0  0  0  0  0  0  0  0
   10.0941    6.2928    0.9756 C   0  0  0  0  0  0  0  0  0  0  0  0
    2.7249    3.9837   -2.3730 C   0  0  0  0  0  0  0  0  0  0  0  0
    9.5259    7.7475    2.1518 C   0  0  0  0  0  0  0  0  0  0  0  0
   11.5701    6.0399    0.3738 O   0  0  0  0  0  0  0  0  0  0  0  0
    0.9526    3.1941   -2.3103 C   0  0  0  0  0  0  0  0  0  0  0  0
    2.9075    5.5734   -3.4726 C   0  0  0  0  0  0  0  0  0  0  0  0
    7.3018    1.6018   -1.4184 H   0  0  0  0  0  0  0  0  0  0  0  0
    6.7265    2.5100    0.7052 H   0  0  0  0  0  0  0  0  0  0  0  0
    5.8602    5.3446   -0.8130 H   0  0  0  0  0  0  0  0  0  0  0  0
    6.2716    4.3146   -2.9029 H   0  0  0  0  0  0  0  0  0  0  0  0
   11.6203    3.0354    0.5152 H   0  0  0  0  0  0  0  0  0  0  0  0
   11.1251    4.5247   -2.2440 H   0  0  0  0  0  0  0  0  0  0  0  0
    9.4979    3.1136   -3.2610 H   0  0  0  0  0  0  0  0  0  0  0  0
    8.9781    5.3862   -2.7751 H   0  0  0  0  0  0  0  0  0  0  0  0
    3.9000    2.1068   -0.6876 H   0  0  0  0  0  0  0  0  0  0  0  0
   11.0161    0.0000    1.4579 H   0  0  0  0  0  0  0  0  0  0  0  0
    8.7144    0.1638    0.7301 H   0  0  0  0  0  0  0  0  0  0  0  0
    9.9295    9.0218    1.5578 H   0  0  0  0  0  0  0  0  0  0  0  0
    8.0774    7.7322    2.3464 H   0  0  0  0  0  0  0  0  0  0  0  0
   10.1906    7.5895    3.4458 H   0  0  0  0  0  0  0  0  0  0  0  0
    0.5016    2.8643   -3.6644 H   0  0  0  0  0  0  0  0  0  0  0  0
    0.9319    1.9723   -1.5058 H   0  0  0  0  0  0  0  0  0  0  0  0
    0.0000    4.1450   -1.7314 H   0  0  0  0  0  0  0  0  0  0  0  0
    1.6022    6.0795   -3.8962 H   0  0  0  0  0  0  0  0  0  0  0  0
    3.5997    6.6329   -2.7337 H   0  0  0  0  0  0  0  0  0  0  0  0
    3.6965    5.2696   -4.6702 H   0  0  0  0  0  0  0  0  0  0  0  0
  1  2  1  0  0  0  0
  1  3  1  0  0  0  0
  1 15  1  6  0  0  0
  1 16  1  1  0  0  0
  2  4  1  0  0  0  0
  2  5  1  6  0  0  0
  2  6  1  1  0  0  0
  3  7  1  0  0  0  0
  3 17  1  1  0  0  0
  3 18  1  6  0  0  0
  4  8  2  0  0  0  0
  4 19  1  0  0  0  0
  5 20  1  0  0  0  0
  5 21  1  6  0  0  0
  5 22  1  0  0  0  0
  6  9  1  0  0  0  0
  7 10  2  0  0  0  0
  7 23  1  1  0  0  0
  8 24  1  0  0  0  0
  8 25  1  0  0  0  0
  9 11  1  1  0  0  0
  9 12  2  0  0  0  0
 10 13  1  0  0  0  0
 10 14  1  6  0  0  0
 11 26  1  0  0  0  0
 11 27  1  0  0  0  0
 11 28  1  1  0  0  0
 13 29  1  6  0  0  0
 13 30  1  1  0  0  0
 13 31  1  0  0  0  0
 14 32  1  0  0  0  0
 14 33  1  1  0  0  0
 14 34  1  6  0  0  0
M  END
>  <Formula> (96)
C12H20O2

>  <Name> (96)
3,7-DIMETHYL-1,6-OCTADIEN-3-OL, ACETATE

>  <CAS-Nr> (96)
115-95-7

>  <EINECS> (96)
204-116-4, 254-806-4

>  <21 CFR> (96)
182.60, 582.60

>  <LD50-rat-oral> (96)
13934

>  <Compound classification> (96)
Monoterpene

>  <Microorganism> (96)
Saccharomyces cerevisiae

>  <Microorganism type> (96)
ATCC 7754

>  <Microorganism classification> (96)
yeast

>  <NIC> (96)
800

>  <Method abbreviation> (96)
SDT

>  <Ref-Nr> (96)
1500

>  <Marker> (96)
0

>  <Method> (96)
Serial dilution test; Inoculum size: adjusted by optical density; Medium: bacteria in Nutrient broth + yeast-extract + glucose, S.mutans in brain heart infusion, fungi in malt broth, P.ovale in bactopeptone + yeast-extract + glucose, T.mentagrophytes in bactopeptone + glucose; pH: ; Incubation-temperature: 30-37 degrees Centigrade; Incubation-time: 2-5d; Solubility enhancer: N,N-dimethylformamid 1%

>  <Reference> (96)
Kubo, I., Himejima, M., Muroi, H.: Antimicrobial Activity of Flavor Components of Cardamom Elattaria cardamomum (Zingiberaceae) Seed; Journal of Agricultural and Food Chemistry 39, 1984-6 (1991)

>  <mol_id> (96)
269

>  <LD50-mouse-oral> (96)
12000

>  <MolWeight> (96)
196.28

>  <Nickname> (96)
Linalyl acetate

>  <other Names> (96)
Bergamol

$$$$

csChmFindW11180110282D

 42 42  0  0  0  0  0  0  0  0999 V2000
    8.5061   11.9623   -2.1145 C   0  0  0  0  0  0  0  0  0  0  0  0
    8.5312   10.0233   -1.6302 C   0  0  0  0  0  0  0  0  0  0  0  0
    7.1584   13.0924   -1.6893 C   0  0  0  0  0  0  0  0  0  0  0  0
    6.6826    9.3318   -1.0538 C   0  0  0  0  0  0  0  0  0  0  0  0
    5.5219   12.4737   -0.6996 C   0  0  0  0  0  0  0  0  0  0  0  0
    7.1804   15.0282   -2.1860 C   0  0  0  0  0  0  0  0  0  0  0  0
    5.8061   10.6721    0.2284 C   0  0  0  0  0  0  0  0  0  0  0  0
    6.8029    7.4195   -0.2330 C   0  0  0  0  0  0  0  0  0  0  0  0
    4.9492    6.5026   -0.3726 C   0  0  0  0  0  0  0  0  0  0  0  0
    7.4727    7.4510    1.7099 C   0  0  0  0  0  0  0  0  0  0  0  0
    8.0715    6.4743   -1.3394 O   0  0  0  0  0  0  0  0  0  0  0  0
    4.8440    4.7039    0.5901 C   0  0  0  0  0  0  0  0  0  0  0  0
    3.0889    3.7964    0.2833 C   0  0  0  0  0  0  0  0  0  0  0  0
    2.6080    2.2551    1.1052 C   0  0  0  0  0  0  0  0  0  0  0  0
    0.8415    1.3831    0.7597 C   0  0  0  0  0  0  0  0  0  0  0  0
    3.8034    1.3257    2.4120 C   0  0  0  0  0  0  0  0  0  0  0  0
    9.7027   12.4434   -2.8537 H   0  0  0  0  0  0  0  0  0  0  0  0
    9.5306    9.8092   -0.5099 H   0  0  0  0  0  0  0  0  0  0  0  0
    9.0147    9.2033   -2.8102 H   0  0  0  0  0  0  0  0  0  0  0  0
    5.8192    9.2266   -2.3010 H   0  0  0  0  0  0  0  0  0  0  0  0
    4.3742   12.3654   -1.6851 H   0  0  0  0  0  0  0  0  0  0  0  0
    5.1289   13.5102    0.3327 H   0  0  0  0  0  0  0  0  0  0  0  0
    5.9236   15.3861   -2.9410 H   0  0  0  0  0  0  0  0  0  0  0  0
    8.3685   15.3651   -3.0505 H   0  0  0  0  0  0  0  0  0  0  0  0
    7.2402   15.8816   -0.9423 H   0  0  0  0  0  0  0  0  0  0  0  0
    6.6916   10.8682    1.4400 H   0  0  0  0  0  0  0  0  0  0  0  0
    4.4763   10.1435    0.7153 H   0  0  0  0  0  0  0  0  0  0  0  0
    4.6388    6.3026   -1.8413 H   0  0  0  0  0  0  0  0  0  0  0  0
    3.9011    7.4308    0.1979 H   0  0  0  0  0  0  0  0  0  0  0  0
    7.8542    6.0618    2.1523 H   0  0  0  0  0  0  0  0  0  0  0  0
    6.3952    7.9723    2.6223 H   0  0  0  0  0  0  0  0  0  0  0  0
    8.6877    8.3324    1.8293 H   0  0  0  0  0  0  0  0  0  0  0  0
    8.1419    5.2596   -0.8804 H   0  0  0  0  0  0  0  0  0  0  0  0
    5.0506    4.9048    2.0807 H   0  0  0  0  0  0  0  0  0  0  0  0
    5.9617    3.7941    0.1132 H   0  0  0  0  0  0  0  0  0  0  0  0
    2.1693    4.4577   -0.6797 H   0  0  0  0  0  0  0  0  0  0  0  0
    1.0505    0.0085    0.1717 H   0  0  0  0  0  0  0  0  0  0  0  0
    0.0000    2.1874   -0.1980 H   0  0  0  0  0  0  0  0  0  0  0  0
    0.0785    1.2299    2.0529 H   0  0  0  0  0  0  0  0  0  0  0  0
    3.2263    0.0000    2.8375 H   0  0  0  0  0  0  0  0  0  0  0  0
    3.9941    2.1798    3.6430 H   0  0  0  0  0  0  0  0  0  0  0  0
    5.1631    1.0814    1.8024 H   0  0  0  0  0  0  0  0  0  0  0  0
  1  2  1  0  0  0  0
  1  3  2  0  0  0  0
  1 17  1  6  0  0  0
  2  4  1  0  0  0  0
  2 18  1  1  0  0  0
  2 19  1  6  0  0  0
  3  5  1  1  0  0  0
  3  6  1  0  0  0  0
  4  7  1  1  0  0  0
  4  8  1  0  0  0  0
  4 20  1  6  0  0  0
  5  7  1  1  0  0  0
  5 21  1  6  0  0  0
  5 22  1  1  0  0  0
  6 23  1  6  0  0  0
  6 24  1  6  0  0  0
  6 25  1  1  0  0  0
  7 26  1  1  0  0  0
  7 27  1  0  0  0  0
  8  9  1  0  0  0  0
  8 10  1  1  0  0  0
  8 11  1  6  0  0  0
  9 12  1  1  0  0  0
  9 28  1  6  0  0  0
  9 29  1  0  0  0  0
 10 30  1  0  0  0  0
 10 31  1  1  0  0  0
 10 32  1  0  0  0  0
 11 33  1  0  0  0  0
 12 13  1  0  0  0  0
 12 34  1  1  0  0  0
 12 35  1  0  0  0  0
 13 14  2  0  0  0  0
 13 36  1  6  0  0  0
 14 15  1  0  0  0  0
 14 16  1  1  0  0  0
 15 37  1  0  0  0  0
 15 38  1  6  0  0  0
 15 39  1  1  0  0  0
 16 40  1  0  0  0  0
 16 41  1  1  0  0  0
 16 42  1  0  0  0  0
M  END
>  <Formula> (97)
C15H26O

>  <Name> (97)
(R*,R*)-ALPHA,4-DIMETHYL-ALPHA-(4-METHYL-3-PENTENYL)-3-CYCLOHEXENE-1-METHANOL

>  <CAS-Nr> (97)
515-69-5

>  <EINECS> (97)
208-205-9

>  <LD50-rat-oral> (97)
14850

>  <Compound classification> (97)
Sesquiterpene

>  <Microorganism> (97)
Bacillus subtilis

>  <Microorganism classification> (97)
Bac+

>  <MIC> (97)
50

>  <Annotation> (97)
MIC: range 32-64 ppm

>  <Method abbreviation> (97)
SDT

>  <Ref-Nr> (97)
2830

>  <Marker> (97)
0

>  <Method> (97)
Serial dilution test; data cited from various sources

>  <Reference> (97)
Kedzia, B.: Antimicrobial Activity of Chamomile Oil and its Components; Herba Polonica 37, 29-38 (1991)

>  <mol_id> (97)
180

>  <LD50-mouse-oral> (97)
11350

>  <MolWeight> (97)
222.36

>  <Nickname> (97)
alpha-Bisabolol

>  <other Names> (97)
Dragosantol, (-)-alpha-Bisabolol

$$$$

csChmFindW11180110282D

 18 18  0  0  0  0  0  0  0  0999 V2000
    5.5201    1.0288    0.0024 C   0  0  0  0  0  0  0  0  0  0  0  0
    7.0065    1.0603   -0.1327 C   0  0  0  0  0  0  0  0  0  0  0  0
    4.7184    2.2938   -0.1108 C   0  0  0  0  0  0  0  0  0  0  0  0
    7.7115    2.3521   -0.3856 C   0  0  0  0  0  0  0  0  0  0  0  0
    5.4396    3.5906   -0.3680 C   0  0  0  0  0  0  0  0  0  0  0  0
    3.1689    2.3132    0.0264 C   0  0  0  0  0  0  0  0  0  0  0  0
    6.9238    3.6170   -0.5038 C   0  0  0  0  0  0  0  0  0  0  0  0
    2.3423    1.1833    0.3517 C   0  0  0  0  0  0  0  0  0  0  0  0
    0.7792    1.3062    0.4671 C   0  0  0  0  0  0  0  0  0  0  0  0
    0.0000    0.2794    0.7569 O   0  0  0  0  0  0  0  0  0  0  0  0
    4.9787    0.0000    0.1979 H   0  0  0  0  0  0  0  0  0  0  0  0
    7.6236    0.0606   -0.0398 H   0  0  0  0  0  0  0  0  0  0  0  0
    8.8846    2.3752   -0.4925 H   0  0  0  0  0  0  0  0  0  0  0  0
    4.8243    4.5916   -0.4624 H   0  0  0  0  0  0  0  0  0  0  0  0
    2.6684    3.3727   -0.1583 H   0  0  0  0  0  0  0  0  0  0  0  0
    7.4771    4.6378   -0.7050 H   0  0  0  0  0  0  0  0  0  0  0  0
    2.7813    0.1058    0.5513 H   0  0  0  0  0  0  0  0  0  0  0  0
    0.3244    2.3932    0.2762 H   0  0  0  0  0  0  0  0  0  0  0  0
  1  2  2  0  0  0  0
  1  3  1  0  0  0  0
  1 11  1  0  0  0  0
  2  4  1  0  0  0  0
  2 12  1  0  0  0  0
  3  5  2  0  0  0  0
  3  6  1  0  0  0  0
  4  7  2  0  0  0  0
  4 13  1  0  0  0  0
  5  7  1  0  0  0  0
  5 14  1  0  0  0  0
  6  8  2  0  0  0  0
  6 15  1  0  0  0  0
  7 16  1  0  0  0  0
  8  9  1  0  0  0  0
  8 17  1  0  0  0  0
  9 10  2  0  0  0  0
  9 18  1  0  0  0  0
M  END
>  <Formula> (98)
C9H8O

>  <Name> (98)
3-PHENYL-2-PROPENAL

>  <CAS-Nr> (98)
104-55-2

>  <EINECS> (98)
203-213-9

>  <21 CFR> (98)
182.60, 582.60

>  <LD50-rat-oral> (98)
2220

>  <Compound classification> (98)
Phenylpropane

>  <Microorganism> (98)
Bacillus sp.

>  <Microorganism classification> (98)
Bac+

>  <MMC> (98)
500

>  <Method abbreviation> (98)
ADlT

>  <Ref-Nr> (98)
2894

>  <Marker> (98)
0

>  <Method> (98)
Agar dilution test; Inoculum size: 3x10E8 cfu/plate; Medium: Nutrient agar; pH: 7.2-7.4; Incubation-temperature: 30 degrees Centigrade; Incubation-time: up to 30 days; Solubility enhancer: ethanol; no growth after 30 days was taken as MMC

>  <Reference> (98)
Moleyar, V., Narasimham, P.: Antibacterial Activity of some Essential Oil Components; International Journal of Food Microbiology 16, 337-42 (1992)

>  <mol_id> (98)
556

>  <LD50-mouse-oral> (98)
2225

>  <LD50-mou-ip> (98)
610

>  <MolWeight> (98)
132.16

>  <Nickname> (98)
Cinnamic aldehyde

>  <LD50-mou-iv> (98)
75

$$$$

csChmFindW11180110282D

 34 33  0  0  0  0  0  0  0  0999 V2000
    7.1864    2.8461   -0.6484 C   0  0  0  0  0  0  0  0  0  0  0  0
    9.0219    3.6574   -0.5138 C   0  0  0  0  0  0  0  0  0  0  0  0
    5.8665    4.0473   -1.5122 C   0  0  0  0  0  0  0  0  0  0  0  0
   10.3096    2.4445    0.3450 C   0  0  0  0  0  0  0  0  0  0  0  0
    9.6995    4.2033   -2.3099 C   0  0  0  0  0  0  0  0  0  0  0  0
    8.7513    5.1844    0.5876 O   0  0  0  0  0  0  0  0  0  0  0  0
    4.0795    3.2923   -1.4907 C   0  0  0  0  0  0  0  0  0  0  0  0
    9.9904    0.8127    0.8593 C   0  0  0  0  0  0  0  0  0  0  0  0
   10.0941    6.2928    0.9756 C   0  0  0  0  0  0  0  0  0  0  0  0
    2.7249    3.9837   -2.3730 C   0  0  0  0  0  0  0  0  0  0  0  0
    9.5259    7.7475    2.1518 C   0  0  0  0  0  0  0  0  0  0  0  0
   11.5701    6.0399    0.3738 O   0  0  0  0  0  0  0  0  0  0  0  0
    0.9526    3.1941   -2.3103 C   0  0  0  0  0  0  0  0  0  0  0  0
    2.9075    5.5734   -3.4726 C   0  0  0  0  0  0  0  0  0  0  0  0
    7.3018    1.6018   -1.4184 H   0  0  0  0  0  0  0  0  0  0  0  0
    6.7265    2.5100    0.7052 H   0  0  0  0  0  0  0  0  0  0  0  0
    5.8602    5.3446   -0.8130 H   0  0  0  0  0  0  0  0  0  0  0  0
    6.2716    4.3146   -2.9029 H   0  0  0  0  0  0  0  0  0  0  0  0
   11.6203    3.0354    0.5152 H   0  0  0  0  0  0  0  0  0  0  0  0
   11.1251    4.5247   -2.2440 H   0  0  0  0  0  0  0  0  0  0  0  0
    9.4979    3.1136   -3.2610 H   0  0  0  0  0  0  0  0  0  0  0  0
    8.9781    5.3862   -2.7751 H   0  0  0  0  0  0  0  0  0  0  0  0
    3.9000    2.1068   -0.6876 H   0  0  0  0  0  0  0  0  0  0  0  0
   11.0161    0.0000    1.4579 H   0  0  0  0  0  0  0  0  0  0  0  0
    8.7144    0.1638    0.7301 H   0  0  0  0  0  0  0  0  0  0  0  0
    9.9295    9.0218    1.5578 H   0  0  0  0  0  0  0  0  0  0  0  0
    8.0774    7.7322    2.3464 H   0  0  0  0  0  0  0  0  0  0  0  0
   10.1906    7.5895    3.4458 H   0  0  0  0  0  0  0  0  0  0  0  0
    0.5016    2.8643   -3.6644 H   0  0  0  0  0  0  0  0  0  0  0  0
    0.9319    1.9723   -1.5058 H   0  0  0  0  0  0  0  0  0  0  0  0
    0.0000    4.1450   -1.7314 H   0  0  0  0  0  0  0  0  0  0  0  0
    1.6022    6.0795   -3.8962 H   0  0  0  0  0  0  0  0  0  0  0  0
    3.5997    6.6329   -2.7337 H   0  0  0  0  0  0  0  0  0  0  0  0
    3.6965    5.2696   -4.6702 H   0  0  0  0  0  0  0  0  0  0  0  0
  1  2  1  0  0  0  0
  1  3  1  0  0  0  0
  1 15  1  6  0  0  0
  1 16  1  1  0  0  0
  2  4  1  0  0  0  0
  2  5  1  6  0  0  0
  2  6  1  1  0  0  0
  3  7  1  0  0  0  0
  3 17  1  1  0  0  0
  3 18  1  6  0  0  0
  4  8  2  0  0  0  0
  4 19  1  0  0  0  0
  5 20  1  0  0  0  0
  5 21  1  6  0  0  0
  5 22  1  0  0  0  0
  6  9  1  0  0  0  0
  7 10  2  0  0  0  0
  7 23  1  1  0  0  0
  8 24  1  0  0  0  0
  8 25  1  0  0  0  0
  9 11  1  1  0  0  0
  9 12  2  0  0  0  0
 10 13  1  0  0  0  0
 10 14  1  6  0  0  0
 11 26  1  0  0  0  0
 11 27  1  0  0  0  0
 11 28  1  1  0  0  0
 13 29  1  6  0  0  0
 13 30  1  1  0  0  0
 13 31  1  0  0  0  0
 14 32  1  0  0  0  0
 14 33  1  1  0  0  0
 14 34  1  6  0  0  0
M  END
>  <Formula> (99)
C12H20O2

>  <Name> (99)
3,7-DIMETHYL-1,6-OCTADIEN-3-OL, ACETATE

>  <CAS-Nr> (99)
115-95-7

>  <EINECS> (99)
204-116-4, 254-806-4

>  <21 CFR> (99)
182.60, 582.60

>  <LD50-rat-oral> (99)
13934

>  <Compound classification> (99)
Monoterpene

>  <Microorganism> (99)
Candida utilis

>  <Microorganism classification> (99)
yeast

>  <Inhibition zone> (99)
0

>  <ADT evaluation> (99)
1

>  <Method abbreviation> (99)
ADT

>  <Ref-Nr> (99)
2908

>  <Marker> (99)
0

>  <Method> (99)
Agar diffusion test; Medium: peptone yeast-extract dextrose casein agar; Inoculum size: ---; hole diameter: 4 mm; Incubation temperature: 37 degrees Centigrade; Incubation time: 48h; compound dose: pure compound (+acetone?)

>  <Reference> (99)
El-Gengaihi, S., Zaki, D.: Biological Investigation of some Essential Oils Isolated from Egyptian Plants: Herba Hungaria 21, 107-11 (1982)

>  <mol_id> (99)
269

>  <LD50-mouse-oral> (99)
12000

>  <MolWeight> (99)
196.28

>  <Nickname> (99)
Linalyl acetate

>  <other Names> (99)
Bergamol

$$$$

csChmFindW11180110282D

 34 33  0  0  0  0  0  0  0  0999 V2000
    7.1864    2.8461   -0.6484 C   0  0  0  0  0  0  0  0  0  0  0  0
    9.0219    3.6574   -0.5138 C   0  0  0  0  0  0  0  0  0  0  0  0
    5.8665    4.0473   -1.5122 C   0  0  0  0  0  0  0  0  0  0  0  0
   10.3096    2.4445    0.3450 C   0  0  0  0  0  0  0  0  0  0  0  0
    9.6995    4.2033   -2.3099 C   0  0  0  0  0  0  0  0  0  0  0  0
    8.7513    5.1844    0.5876 O   0  0  0  0  0  0  0  0  0  0  0  0
    4.0795    3.2923   -1.4907 C   0  0  0  0  0  0  0  0  0  0  0  0
    9.9904    0.8127    0.8593 C   0  0  0  0  0  0  0  0  0  0  0  0
   10.0941    6.2928    0.9756 C   0  0  0  0  0  0  0  0  0  0  0  0
    2.7249    3.9837   -2.3730 C   0  0  0  0  0  0  0  0  0  0  0  0
    9.5259    7.7475    2.1518 C   0  0  0  0  0  0  0  0  0  0  0  0
   11.5701    6.0399    0.3738 O   0  0  0  0  0  0  0  0  0  0  0  0
    0.9526    3.1941   -2.3103 C   0  0  0  0  0  0  0  0  0  0  0  0
    2.9075    5.5734   -3.4726 C   0  0  0  0  0  0  0  0  0  0  0  0
    7.3018    1.6018   -1.4184 H   0  0  0  0  0  0  0  0  0  0  0  0
    6.7265    2.5100    0.7052 H   0  0  0  0  0  0  0  0  0  0  0  0
    5.8602    5.3446   -0.8130 H   0  0  0  0  0  0  0  0  0  0  0  0
    6.2716    4.3146   -2.9029 H   0  0  0  0  0  0  0  0  0  0  0  0
   11.6203    3.0354    0.5152 H   0  0  0  0  0  0  0  0  0  0  0  0
   11.1251    4.5247   -2.2440 H   0  0  0  0  0  0  0  0  0  0  0  0
    9.4979    3.1136   -3.2610 H   0  0  0  0  0  0  0  0  0  0  0  0
    8.9781    5.3862   -2.7751 H   0  0  0  0  0  0  0  0  0  0  0  0
    3.9000    2.1068   -0.6876 H   0  0  0  0  0  0  0  0  0  0  0  0
   11.0161    0.0000    1.4579 H   0  0  0  0  0  0  0  0  0  0  0  0
    8.7144    0.1638    0.7301 H   0  0  0  0  0  0  0  0  0  0  0  0
    9.9295    9.0218    1.5578 H   0  0  0  0  0  0  0  0  0  0  0  0
    8.0774    7.7322    2.3464 H   0  0  0  0  0  0  0  0  0  0  0  0
   10.1906    7.5895    3.4458 H   0  0  0  0  0  0  0  0  0  0  0  0
    0.5016    2.8643   -3.6644 H   0  0  0  0  0  0  0  0  0  0  0  0
    0.9319    1.9723   -1.5058 H   0  0  0  0  0  0  0  0  0  0  0  0
    0.0000    4.1450   -1.7314 H   0  0  0  0  0  0  0  0  0  0  0  0
    1.6022    6.0795   -3.8962 H   0  0  0  0  0  0  0  0  0  0  0  0
    3.5997    6.6329   -2.7337 H   0  0  0  0  0  0  0  0  0  0  0  0
    3.6965    5.2696   -4.6702 H   0  0  0  0  0  0  0  0  0  0  0  0
  1  2  1  0  0  0  0
  1  3  1  0  0  0  0
  1 15  1  6  0  0  0
  1 16  1  1  0  0  0
  2  4  1  0  0  0  0
  2  5  1  6  0  0  0
  2  6  1  1  0  0  0
  3  7  1  0  0  0  0
  3 17  1  1  0  0  0
  3 18  1  6  0  0  0
  4  8  2  0  0  0  0
  4 19  1  0  0  0  0
  5 20  1  0  0  0  0
  5 21  1  6  0  0  0
  5 22  1  0  0  0  0
  6  9  1  0  0  0  0
  7 10  2  0  0  0  0
  7 23  1  1  0  0  0
  8 24  1  0  0  0  0
  8 25  1  0  0  0  0
  9 11  1  1  0  0  0
  9 12  2  0  0  0  0
 10 13  1  0  0  0  0
 10 14  1  6  0  0  0
 11 26  1  0  0  0  0
 11 27  1  0  0  0  0
 11 28  1  1  0  0  0
 13 29  1  6  0  0  0
 13 30  1  1  0  0  0
 13 31  1  0  0  0  0
 14 32  1  0  0  0  0
 14 33  1  1  0  0  0
 14 34  1  6  0  0  0
M  END
>  <Formula> (100)
C12H20O2

>  <Name> (100)
3,7-DIMETHYL-1,6-OCTADIEN-3-OL, ACETATE

>  <CAS-Nr> (100)
115-95-7

>  <EINECS> (100)
204-116-4, 254-806-4

>  <21 CFR> (100)
182.60, 582.60

>  <LD50-rat-oral> (100)
13934

>  <Compound classification> (100)
Monoterpene

>  <Microorganism> (100)
Saccharomyces cerevisiae

>  <Microorganism classification> (100)
yeast

>  <Inhibition zone> (100)
4

>  <ADT evaluation> (100)
2

>  <Method abbreviation> (100)
ADT

>  <Ref-Nr> (100)
2908

>  <Marker> (100)
0

>  <Method> (100)
Agar diffusion test; Medium: peptone yeast-extract dextrose casein agar; Inoculum size: ---; hole diameter: 4 mm; Incubation temperature: 37 degrees Centigrade; Incubation time: 48h; compound dose: pure compound (+acetone?)

>  <Reference> (100)
El-Gengaihi, S., Zaki, D.: Biological Investigation of some Essential Oils Isolated from Egyptian Plants: Herba Hungaria 21, 107-11 (1982)

>  <mol_id> (100)
269

>  <LD50-mouse-oral> (100)
12000

>  <MolWeight> (100)
196.28

>  <Nickname> (100)
Linalyl acetate

>  <other Names> (100)
Bergamol

$$$$

csChmFindW11180110282D

 34 33  0  0  0  0  0  0  0  0999 V2000
    7.1864    2.8461   -0.6484 C   0  0  0  0  0  0  0  0  0  0  0  0
    9.0219    3.6574   -0.5138 C   0  0  0  0  0  0  0  0  0  0  0  0
    5.8665    4.0473   -1.5122 C   0  0  0  0  0  0  0  0  0  0  0  0
   10.3096    2.4445    0.3450 C   0  0  0  0  0  0  0  0  0  0  0  0
    9.6995    4.2033   -2.3099 C   0  0  0  0  0  0  0  0  0  0  0  0
    8.7513    5.1844    0.5876 O   0  0  0  0  0  0  0  0  0  0  0  0
    4.0795    3.2923   -1.4907 C   0  0  0  0  0  0  0  0  0  0  0  0
    9.9904    0.8127    0.8593 C   0  0  0  0  0  0  0  0  0  0  0  0
   10.0941    6.2928    0.9756 C   0  0  0  0  0  0  0  0  0  0  0  0
    2.7249    3.9837   -2.3730 C   0  0  0  0  0  0  0  0  0  0  0  0
    9.5259    7.7475    2.1518 C   0  0  0  0  0  0  0  0  0  0  0  0
   11.5701    6.0399    0.3738 O   0  0  0  0  0  0  0  0  0  0  0  0
    0.9526    3.1941   -2.3103 C   0  0  0  0  0  0  0  0  0  0  0  0
    2.9075    5.5734   -3.4726 C   0  0  0  0  0  0  0  0  0  0  0  0
    7.3018    1.6018   -1.4184 H   0  0  0  0  0  0  0  0  0  0  0  0
    6.7265    2.5100    0.7052 H   0  0  0  0  0  0  0  0  0  0  0  0
    5.8602    5.3446   -0.8130 H   0  0  0  0  0  0  0  0  0  0  0  0
    6.2716    4.3146   -2.9029 H   0  0  0  0  0  0  0  0  0  0  0  0
   11.6203    3.0354    0.5152 H   0  0  0  0  0  0  0  0  0  0  0  0
   11.1251    4.5247   -2.2440 H   0  0  0  0  0  0  0  0  0  0  0  0
    9.4979    3.1136   -3.2610 H   0  0  0  0  0  0  0  0  0  0  0  0
    8.9781    5.3862   -2.7751 H   0  0  0  0  0  0  0  0  0  0  0  0
    3.9000    2.1068   -0.6876 H   0  0  0  0  0  0  0  0  0  0  0  0
   11.0161    0.0000    1.4579 H   0  0  0  0  0  0  0  0  0  0  0  0
    8.7144    0.1638    0.7301 H   0  0  0  0  0  0  0  0  0  0  0  0
    9.9295    9.0218    1.5578 H   0  0  0  0  0  0  0  0  0  0  0  0
    8.0774    7.7322    2.3464 H   0  0  0  0  0  0  0  0  0  0  0  0
   10.1906    7.5895    3.4458 H   0  0  0  0  0  0  0  0  0  0  0  0
    0.5016    2.8643   -3.6644 H   0  0  0  0  0  0  0  0  0  0  0  0
    0.9319    1.9723   -1.5058 H   0  0  0  0  0  0  0  0  0  0  0  0
    0.0000    4.1450   -1.7314 H   0  0  0  0  0  0  0  0  0  0  0  0
    1.6022    6.0795   -3.8962 H   0  0  0  0  0  0  0  0  0  0  0  0
    3.5997    6.6329   -2.7337 H   0  0  0  0  0  0  0  0  0  0  0  0
    3.6965    5.2696   -4.6702 H   0  0  0  0  0  0  0  0  0  0  0  0
  1  2  1  0  0  0  0
  1  3  1  0  0  0  0
  1 15  1  6  0  0  0
  1 16  1  1  0  0  0
  2  4  1  0  0  0  0
  2  5  1  6  0  0  0
  2  6  1  1  0  0  0
  3  7  1  0  0  0  0
  3 17  1  1  0  0  0
  3 18  1  6  0  0  0
  4  8  2  0  0  0  0
  4 19  1  0  0  0  0
  5 20  1  0  0  0  0
  5 21  1  6  0  0  0
  5 22  1  0  0  0  0
  6  9  1  0  0  0  0
  7 10  2  0  0  0  0
  7 23  1  1  0  0  0
  8 24  1  0  0  0  0
  8 25  1  0  0  0  0
  9 11  1  1  0  0  0
  9 12  2  0  0  0  0
 10 13  1  0  0  0  0
 10 14  1  6  0  0  0
 11 26  1  0  0  0  0
 11 27  1  0  0  0  0
 11 28  1  1  0  0  0
 13 29  1  6  0  0  0
 13 30  1  1  0  0  0
 13 31  1  0  0  0  0
 14 32  1  0  0  0  0
 14 33  1  1  0  0  0
 14 34  1  6  0  0  0
M  END
>  <Formula> (101)
C12H20O2

>  <Name> (101)
3,7-DIMETHYL-1,6-OCTADIEN-3-OL, ACETATE

>  <CAS-Nr> (101)
115-95-7

>  <EINECS> (101)
204-116-4, 254-806-4

>  <21 CFR> (101)
182.60, 582.60

>  <LD50-rat-oral> (101)
13934

>  <Compound classification> (101)
Monoterpene

>  <Microorganism> (101)
Saccharomyces cerevisiae

>  <Microorganism classification> (101)
yeast

>  <Inhibition zone> (101)
0

>  <ADT evaluation> (101)
1

>  <Method abbreviation> (101)
ADT

>  <Ref-Nr> (101)
2917

>  <Marker> (101)
0

>  <Method> (101)
Agar diffusion test; method in Russian - not translated

>  <Reference> (101)
Iliev, S., Papanov, G., Malakov, P., Khristeva, P., Tomova, K.: Antibiotic Activity of Terpenoid Compounds: Naucni trudove / Plovdivski Universitet Paisij Chilendarski 21, 105-12 (1983)

>  <mol_id> (101)
269

>  <LD50-mouse-oral> (101)
12000

>  <MolWeight> (101)
196.28

>  <Nickname> (101)
Linalyl acetate

>  <other Names> (101)
Bergamol

$$$$

csChmFindW11180110282D

 29 30  0  0  0  0  0  0  0  0999 V2000
    3.0840    4.5474   -0.2239 C   0  0  0  0  0  0  0  0  0  0  0  0
    1.2830    4.1887   -1.2987 C   0  0  0  0  0  0  0  0  0  0  0  0
    4.6659    4.0920   -1.5452 C   0  0  0  0  0  0  0  0  0  0  0  0
    3.1959    6.3930    0.6317 C   0  0  0  0  0  0  0  0  0  0  0  0
    3.1023    2.8552    1.0914 C   0  0  0  0  0  0  0  0  0  0  0  0
    1.2613    2.0877   -1.5408 C   0  0  0  0  0  0  0  0  0  0  0  0
    1.3272    5.1441   -2.9766 O   0  0  0  0  0  0  0  0  0  0  0  0
    4.6161    2.0001   -1.7054 C   0  0  0  0  0  0  0  0  0  0  0  0
    2.9772    1.4501   -0.5082 C   0  0  0  0  0  0  0  0  0  0  0  0
    4.8328    2.6854    2.2058 C   0  0  0  0  0  0  0  0  0  0  0  0
    1.5070    2.7691    2.3997 C   0  0  0  0  0  0  0  0  0  0  0  0
    0.0742    4.6692   -0.4883 H   0  0  0  0  0  0  0  0  0  0  0  0
    5.9937    4.5808   -0.9833 H   0  0  0  0  0  0  0  0  0  0  0  0
    4.4448    4.7626   -2.8952 H   0  0  0  0  0  0  0  0  0  0  0  0
    4.4973    6.5363    1.4131 H   0  0  0  0  0  0  0  0  0  0  0  0
    2.0297    6.6133    1.5886 H   0  0  0  0  0  0  0  0  0  0  0  0
    3.1480    7.4679   -0.4490 H   0  0  0  0  0  0  0  0  0  0  0  0
    1.3276    1.7066   -3.0140 H   0  0  0  0  0  0  0  0  0  0  0  0
    0.0000    1.4801   -0.9456 H   0  0  0  0  0  0  0  0  0  0  0  0
    0.2744    4.7453   -3.6581 H   0  0  0  0  0  0  0  0  0  0  0  0
    5.9017    1.3689   -1.1883 H   0  0  0  0  0  0  0  0  0  0  0  0
    4.4220    1.5554   -3.1483 H   0  0  0  0  0  0  0  0  0  0  0  0
    2.9560    0.0000   -0.0921 H   0  0  0  0  0  0  0  0  0  0  0  0
    4.8867    1.3118    2.8650 H   0  0  0  0  0  0  0  0  0  0  0  0
    4.8489    3.7499    3.2977 H   0  0  0  0  0  0  0  0  0  0  0  0
    6.0873    2.8582    1.3629 H   0  0  0  0  0  0  0  0  0  0  0  0
    1.6198    1.5201    3.2675 H   0  0  0  0  0  0  0  0  0  0  0  0
    0.1645    2.7225    1.6864 H   0  0  0  0  0  0  0  0  0  0  0  0
    1.5201    3.9930    3.3093 H   0  0  0  0  0  0  0  0  0  0  0  0
  1  2  1  6  0  0  0
  1  3  1  6  0  0  0
  1  4  1  0  0  0  0
  1  5  1  1  0  0  0
  2  6  1  0  0  0  0
  2  7  1  6  0  0  0
  2 12  1  1  0  0  0
  3  8  1  0  0  0  0
  3 13  1  0  0  0  0
  3 14  1  6  0  0  0
  4 15  1  1  0  0  0
  4 16  1  1  0  0  0
  4 17  1  6  0  0  0
  5  9  1  6  0  0  0
  5 10  1  1  0  0  0
  5 11  1  1  0  0  0
  6  9  1  1  0  0  0
  6 18  1  6  0  0  0
  6 19  1  0  0  0  0
  7 20  1  6  0  0  0
  8  9  1  1  0  0  0
  8 21  1  0  0  0  0
  8 22  1  6  0  0  0
  9 23  1  0  0  0  0
 10 24  1  0  0  0  0
 10 25  1  1  0  0  0
 10 26  1  6  0  0  0
 11 27  1  1  0  0  0
 11 28  1  6  0  0  0
 11 29  1  1  0  0  0
M  END
>  <Formula> (102)
C10H18O

>  <Name> (102)
(1R,2S,4R)-REL-1,7,7-TRIMETHYLBICYCLO[2.2.1]HEPTAN-2-OL

>  <CAS-Nr> (102)
507-70-0

>  <EINECS> (102)
208-080-0

>  <21 CFR> (102)
172.515

>  <LD50-rat-oral> (102)
500

>  <Compound classification> (102)
Monoterpene

>  <Microorganism> (102)
Pseudomonas aeruginosa

>  <Microorganism type> (102)
ATCC 15422

>  <Microorganism classification> (102)
Bac-

>  <Inhibition zone> (102)
0

>  <ADT evaluation> (102)
1

>  <Method abbreviation> (102)
ADT

>  <Ref-Nr> (102)
2999

>  <Marker> (102)
0

>  <Method> (102)
Agar diffusion test; method cited; hole technique; Incubation time: fungi 24-48h, mycobacterium 72-96h; compound dose: 2mg/ml in ethanol or dimethylsulfoxide

>  <Reference> (102)
Hammerschmidt, F.-J., Clark, A.M., Soliman, F.M., El-Sayeda, A., El-Kashoury, M.M., El-Kawy, A., El-Fishawy, A.M.: Chemical Composition and Antimicrobial Activity of Essential Oils of Jasonia candicans and J. montana; Planta medica 59, 68-70 (1993)

>  <mol_id> (102)
200

>  <LD50-mouse-oral> (102)
1059

>  <MolWeight> (102)
154.25

>  <Nickname> (102)
DL-Borneol

>  <other Names> (102)
Sumatra camphor, Camphol

$$$$

csChmFindW11180110282D

 24 24  0  0  0  0  0  0  0  0999 V2000
    7.9403    5.4393    1.2459 C   0  0  0  0  0  0  0  0  0  0  0  0
    7.0715    3.9032    1.1169 C   0  0  0  0  0  0  0  0  0  0  0  0
    7.0436    6.9418    1.2706 C   0  0  0  0  0  0  0  0  0  0  0  0
    9.6533    5.5396    1.3495 O   0  0  0  0  0  0  0  0  0  0  0  0
    5.3313    3.8844    1.0176 C   0  0  0  0  0  0  0  0  0  0  0  0
    8.0859    2.4972    1.0977 O   0  0  0  0  0  0  0  0  0  0  0  0
    5.3043    6.9088    1.1697 C   0  0  0  0  0  0  0  0  0  0  0  0
    4.4421    5.3943    1.0446 C   0  0  0  0  0  0  0  0  0  0  0  0
    7.2456    0.9312    1.0245 C   0  0  0  0  0  0  0  0  0  0  0  0
    2.5800    5.3709    0.9558 C   0  0  0  0  0  0  0  0  0  0  0  0
    1.9625    4.8221   -0.7096 C   0  0  0  0  0  0  0  0  0  0  0  0
    0.6867    5.5375   -1.5034 C   0  0  0  0  0  0  0  0  0  0  0  0
    7.7279    8.1301    1.3693 H   0  0  0  0  0  0  0  0  0  0  0  0
   10.0991    4.4125    1.3189 H   0  0  0  0  0  0  0  0  0  0  0  0
    4.6447    2.6976    0.9179 H   0  0  0  0  0  0  0  0  0  0  0  0
    4.6074    8.0955    1.1881 H   0  0  0  0  0  0  0  0  0  0  0  0
    8.2910    0.0000    1.0470 H   0  0  0  0  0  0  0  0  0  0  0  0
    6.5127    0.8222   -0.1601 H   0  0  0  0  0  0  0  0  0  0  0  0
    6.4124    0.7665    2.1338 H   0  0  0  0  0  0  0  0  0  0  0  0
    2.0705    6.6423    1.2716 H   0  0  0  0  0  0  0  0  0  0  0  0
    2.0879    4.4776    1.9283 H   0  0  0  0  0  0  0  0  0  0  0  0
    2.6384    3.7511   -1.2561 H   0  0  0  0  0  0  0  0  0  0  0  0
    0.2434    5.0923   -2.7240 H   0  0  0  0  0  0  0  0  0  0  0  0
    0.0000    6.6121   -0.9949 H   0  0  0  0  0  0  0  0  0  0  0  0
  1  2  2  0  0  0  0
  1  3  1  0  0  0  0
  1  4  1  0  0  0  0
  2  5  1  0  0  0  0
  2  6  1  0  0  0  0
  3  7  2  0  0  0  0
  3 13  1  0  0  0  0
  4 14  1  0  0  0  0
  5  8  2  0  0  0  0
  5 15  1  0  0  0  0
  6  9  1  0  0  0  0
  7  8  1  0  0  0  0
  7 16  1  0  0  0  0
  8 10  1  0  0  0  0
  9 17  1  0  0  0  0
  9 18  1  6  0  0  0
  9 19  1  1  0  0  0
 10 11  1  6  0  0  0
 10 20  1  0  0  0  0
 10 21  1  1  0  0  0
 11 12  2  0  0  0  0
 11 22  1  0  0  0  0
 12 23  1  6  0  0  0
 12 24  1  0  0  0  0
M  END
>  <Formula> (103)
C10H12O2

>  <Name> (103)
2-METHOXY-4-(2-PROPENYL)-PHENOL

>  <CAS-Nr> (103)
97-53-0

>  <EINECS> (103)
202-589-1

>  <21 CFR> (103)
184.1257, 175.105, 177.2800, 582.60

>  <LD50-rat-oral> (103)
1930

>  <Compound classification> (103)
Phenylpropane

>  <Microorganism> (103)
Veillonella parvula

>  <Microorganism classification> (103)
Bac-

>  <Inhibition zone> (103)
30

>  <VPT evaluation> (103)
3

>  <Method abbreviation> (103)
VPT

>  <Ref-Nr> (103)
3450

>  <Marker> (103)
0

>  <Method> (103)
Vapor phase test; Inoculum size: ---; Medium: Brucella agar; pH: ---; Incubation-temperature: 37 degrees Centigrade; Incubation-time: 7 days; 25 microliter test compound was given cotton pellet fixed into the air space. Plates were placed into anaerobic jar

>  <Reference> (103)
Ohara, P., Torabinejad, M., Kettering, J.D.: Antibacterial Effects of Various Endodontic Medicaments on Selected Anaerobic Bacteria; Journal of Endodontics 19, 498-500 (1993)

>  <mol_id> (103)
118

>  <LD50-mouse-oral> (103)
3000

>  <LD50-mou-ip> (103)
500

>  <MolWeight> (103)
164.20

>  <Nickname> (103)
Eugenol

>  <other Names> (103)
3-Methoxy-4-hydroxy-allylbenzene, Allylguaiacol, Eugenic acid, Caryophyllic acid

>  <LD50-mou-iv> (103)
72

$$$$

>  <Name> (104)
[2S-[2ALPHA,5ALPHA,6BETA(S*)]]-6-[(AMINOPHENYLACETYL)AMINO]-3,3-DIMETHYL-7-OXO-4-THIA-1-AZABICYCLO[3.2.0]HEPTANE-2-CARBOXYLIC ACID

>  <CAS-Nr> (104)
69-53-4

>  <EINECS> (104)
200-709-7

>  <21 CFR> (104)
556.40

>  <LD50-rat-oral> (104)
10000

>  <Compound classification> (104)
AB-bLac

>  <Microorganism> (104)
Staphylococcus aureus

>  <Microorganism type> (104)
methicillin resistant

>  <Microorganism classification> (104)
Bac+

>  <MIC> (104)
64

>  <Method abbreviation> (104)
ADlT

>  <Ref-Nr> (104)
4083

>  <Marker> (104)
0

>  <Method> (104)
Agar dilution test; Inoculum size: ---; Medium: Mueller-Hinton agar (bacteria), casitone agar (fungi): pH:---; Incubation-temperature: ---; Incubation-time: ---; Solubility enhancer: dimethylsulfoxide; method cited

>  <Reference> (104)
Burapadaja, S., Bunchoo, A.: Antimicrobial Activity of Tannins from Terminalia citrina; Planta medica 61, 365-6 (1995)

>  <mol_id> (104)
2136

>  <LD50-mouse-oral> (104)
15200

>  <LD50-mou-ip> (104)
3250

>  <Nickname> (104)
Ampicillin

>  <other Names> (104)
AB-PC, Adobacillin, Amblosin, Amfipen, Aminobenzylpenicillin, D-(-)-alpha-Aminobenzylpenicillin, D-(-)-alpha-Aminopenicillin, 6-(D(-)-alpha-Aminophenylacetamido)penicillanic acid, Amipenix S, Ampi-bol, Ampicillin, D-Ampicillin, D-(-)-Ampicillin, Ampicillin A, Ampicillin acid, Ampicillin anhydrate, Ampicin, Ampimed, Ampipenin, Amplisom, Amplital, Ampy-Penyl, Austrapen, AY-6108, Binotal, Bonapicillin, Britacil, BRL 1341, Copharcilin, Doktacillin, Grampenil, Guicitrina, NSC-528986, Nuvapen, Olin Kid, Omnipen, P-50, Penbristol, Penbritin, Penbritin paediatric, Penbritin syrup, Penbrock, Penicillin, (aminophenylmethyl)-, Penicline, Pentrex, Pentrexl, Pfizerpen A, Ponecil, Principen, Qidamp, Roscillin, Semicillin, SK-Ampicillin, Synpenin, Tokiocillin, Tolomol, Totacillin, Totalciclina, Totapen, Ultrabron, Viccillin, Viccillin S, WY-5103

>  <LD50-mou-iv> (104)
4600

$$$$

>  <Name> (105)
[2S-[2ALPHA,5ALPHA,6BETA(S*)]]-6-[(AMINOPHENYLACETYL)AMINO]-3,3-DIMETHYL-7-OXO-4-THIA-1-AZABICYCLO[3.2.0]HEPTANE-2-CARBOXYLIC ACID

>  <CAS-Nr> (105)
69-53-4

>  <EINECS> (105)
200-709-7

>  <21 CFR> (105)
556.40

>  <LD50-rat-oral> (105)
10000

>  <Compound classification> (105)
AB-bLac

>  <Microorganism> (105)
Staphylococcus aureus

>  <Microorganism type> (105)
ATCC 25923

>  <Microorganism classification> (105)
Bac+

>  <MIC> (105)
0.5

>  <Method abbreviation> (105)
ADlT

>  <Ref-Nr> (105)
4083

>  <Marker> (105)
0

>  <Method> (105)
Agar dilution test; Inoculum size: ---; Medium: Mueller-Hinton agar (bacteria), casitone agar (fungi): pH:---; Incubation-temperature: ---; Incubation-time: ---; Solubility enhancer: dimethylsulfoxide; method cited

>  <Reference> (105)
Burapadaja, S., Bunchoo, A.: Antimicrobial Activity of Tannins from Terminalia citrina; Planta medica 61, 365-6 (1995)

>  <mol_id> (105)
2136

>  <LD50-mouse-oral> (105)
15200

>  <LD50-mou-ip> (105)
3250

>  <Nickname> (105)
Ampicillin

>  <other Names> (105)
AB-PC, Adobacillin, Amblosin, Amfipen, Aminobenzylpenicillin, D-(-)-alpha-Aminobenzylpenicillin, D-(-)-alpha-Aminopenicillin, 6-(D(-)-alpha-Aminophenylacetamido)penicillanic acid, Amipenix S, Ampi-bol, Ampicillin, D-Ampicillin, D-(-)-Ampicillin, Ampicillin A, Ampicillin acid, Ampicillin anhydrate, Ampicin, Ampimed, Ampipenin, Amplisom, Amplital, Ampy-Penyl, Austrapen, AY-6108, Binotal, Bonapicillin, Britacil, BRL 1341, Copharcilin, Doktacillin, Grampenil, Guicitrina, NSC-528986, Nuvapen, Olin Kid, Omnipen, P-50, Penbristol, Penbritin, Penbritin paediatric, Penbritin syrup, Penbrock, Penicillin, (aminophenylmethyl)-, Penicline, Pentrex, Pentrexl, Pfizerpen A, Ponecil, Principen, Qidamp, Roscillin, Semicillin, SK-Ampicillin, Synpenin, Tokiocillin, Tolomol, Totacillin, Totalciclina, Totapen, Ultrabron, Viccillin, Viccillin S, WY-5103

>  <LD50-mou-iv> (105)
4600

$$$$
>  <Name> (106)
[2S-[2ALPHA,5ALPHA,6BETA(S*)]]-6-[(AMINOPHENYLACETYL)AMINO]-3,3-DIMETHYL-7-OXO-4-THIA-1-AZABICYCLO[3.2.0]HEPTANE-2-CARBOXYLIC ACID

>  <CAS-Nr> (106)
69-53-4

>  <EINECS> (106)
200-709-7

>  <21 CFR> (106)
556.40

>  <LD50-rat-oral> (106)
10000

>  <Compound classification> (106)
AB-bLac

>  <Microorganism> (106)
Staphylococcus aureus

>  <Microorganism type> (106)
methicillin sensitive

>  <Microorganism classification> (106)
Bac+

>  <MIC> (106)
4

>  <Method abbreviation> (106)
ADlT

>  <Ref-Nr> (106)
4083

>  <Marker> (106)
0

>  <Method> (106)
Agar dilution test; Inoculum size: ---; Medium: Mueller-Hinton agar (bacteria), casitone agar (fungi): pH:---; Incubation-temperature: ---; Incubation-time: ---; Solubility enhancer: dimethylsulfoxide; method cited

>  <Reference> (106)
Burapadaja, S., Bunchoo, A.: Antimicrobial Activity of Tannins from Terminalia citrina; Planta medica 61, 365-6 (1995)

>  <mol_id> (106)
2136

>  <LD50-mouse-oral> (106)
15200

>  <LD50-mou-ip> (106)
3250

>  <Nickname> (106)
Ampicillin

>  <other Names> (106)
AB-PC, Adobacillin, Amblosin, Amfipen, Aminobenzylpenicillin, D-(-)-alpha-Aminobenzylpenicillin, D-(-)-alpha-Aminopenicillin, 6-(D(-)-alpha-Aminophenylacetamido)penicillanic acid, Amipenix S, Ampi-bol, Ampicillin, D-Ampicillin, D-(-)-Ampicillin, Ampicillin A, Ampicillin acid, Ampicillin anhydrate, Ampicin, Ampimed, Ampipenin, Amplisom, Amplital, Ampy-Penyl, Austrapen, AY-6108, Binotal, Bonapicillin, Britacil, BRL 1341, Copharcilin, Doktacillin, Grampenil, Guicitrina, NSC-528986, Nuvapen, Olin Kid, Omnipen, P-50, Penbristol, Penbritin, Penbritin paediatric, Penbritin syrup, Penbrock, Penicillin, (aminophenylmethyl)-, Penicline, Pentrex, Pentrexl, Pfizerpen A, Ponecil, Principen, Qidamp, Roscillin, Semicillin, SK-Ampicillin, Synpenin, Tokiocillin, Tolomol, Totacillin, Totalciclina, Totapen, Ultrabron, Viccillin, Viccillin S, WY-5103

>  <LD50-mou-iv> (106)
4600

$$$$

csChmFindW11180110282D

 24 24  0  0  0  0  0  0  0  0999 V2000
    7.9403    5.4393    1.2459 C   0  0  0  0  0  0  0  0  0  0  0  0
    7.0715    3.9032    1.1169 C   0  0  0  0  0  0  0  0  0  0  0  0
    7.0436    6.9418    1.2706 C   0  0  0  0  0  0  0  0  0  0  0  0
    9.6533    5.5396    1.3495 O   0  0  0  0  0  0  0  0  0  0  0  0
    5.3313    3.8844    1.0176 C   0  0  0  0  0  0  0  0  0  0  0  0
    8.0859    2.4972    1.0977 O   0  0  0  0  0  0  0  0  0  0  0  0
    5.3043    6.9088    1.1697 C   0  0  0  0  0  0  0  0  0  0  0  0
    4.4421    5.3943    1.0446 C   0  0  0  0  0  0  0  0  0  0  0  0
    7.2456    0.9312    1.0245 C   0  0  0  0  0  0  0  0  0  0  0  0
    2.5800    5.3709    0.9558 C   0  0  0  0  0  0  0  0  0  0  0  0
    1.9625    4.8221   -0.7096 C   0  0  0  0  0  0  0  0  0  0  0  0
    0.6867    5.5375   -1.5034 C   0  0  0  0  0  0  0  0  0  0  0  0
    7.7279    8.1301    1.3693 H   0  0  0  0  0  0  0  0  0  0  0  0
   10.0991    4.4125    1.3189 H   0  0  0  0  0  0  0  0  0  0  0  0
    4.6447    2.6976    0.9179 H   0  0  0  0  0  0  0  0  0  0  0  0
    4.6074    8.0955    1.1881 H   0  0  0  0  0  0  0  0  0  0  0  0
    8.2910    0.0000    1.0470 H   0  0  0  0  0  0  0  0  0  0  0  0
    6.5127    0.8222   -0.1601 H   0  0  0  0  0  0  0  0  0  0  0  0
    6.4124    0.7665    2.1338 H   0  0  0  0  0  0  0  0  0  0  0  0
    2.0705    6.6423    1.2716 H   0  0  0  0  0  0  0  0  0  0  0  0
    2.0879    4.4776    1.9283 H   0  0  0  0  0  0  0  0  0  0  0  0
    2.6384    3.7511   -1.2561 H   0  0  0  0  0  0  0  0  0  0  0  0
    0.2434    5.0923   -2.7240 H   0  0  0  0  0  0  0  0  0  0  0  0
    0.0000    6.6121   -0.9949 H   0  0  0  0  0  0  0  0  0  0  0  0
  1  2  2  0  0  0  0
  1  3  1  0  0  0  0
  1  4  1  0  0  0  0
  2  5  1  0  0  0  0
  2  6  1  0  0  0  0
  3  7  2  0  0  0  0
  3 13  1  0  0  0  0
  4 14  1  0  0  0  0
  5  8  2  0  0  0  0
  5 15  1  0  0  0  0
  6  9  1  0  0  0  0
  7  8  1  0  0  0  0
  7 16  1  0  0  0  0
  8 10  1  0  0  0  0
  9 17  1  0  0  0  0
  9 18  1  6  0  0  0
  9 19  1  1  0  0  0
 10 11  1  6  0  0  0
 10 20  1  0  0  0  0
 10 21  1  1  0  0  0
 11 12  2  0  0  0  0
 11 22  1  0  0  0  0
 12 23  1  6  0  0  0
 12 24  1  0  0  0  0
M  END
>  <Formula> (107)
C10H12O2

>  <Name> (107)
2-METHOXY-4-(2-PROPENYL)-PHENOL

>  <CAS-Nr> (107)
97-53-0

>  <EINECS> (107)
202-589-1

>  <21 CFR> (107)
184.1257, 175.105, 177.2800, 582.60

>  <LD50-rat-oral> (107)
1930

>  <Compound classification> (107)
Phenylpropane

>  <Microorganism> (107)
Streptococcus sp.

>  <Microorganism classification> (107)
Bac+

>  <Inhibition zone> (107)
5

>  <ADT evaluation> (107)
2

>  <Method abbreviation> (107)
ADT

>  <Ref-Nr> (107)
4101

>  <Marker> (107)
0

>  <Method> (107)
Agar diffusion test; Medium: blood agar (nutrient agar + 5% sheep blood); Inoculum size: defined; disk diameter: --mm; Incubation temperature: 37 degrees Centigrade; Incubation time: 18h; compound dose: 5 microgram per disk; Data were compared to 17 antibiotics

>  <Reference> (107)
Suresh, P., Ingle, V.K., Vijayalakshmi, V.: Antibacterial Action of Eugenol in Comparison with Other Antibiotics; Journal of Food Science and Technology (India) 29, 254-6 (1992)

>  <mol_id> (107)
118

>  <LD50-mouse-oral> (107)
3000

>  <LD50-mou-ip> (107)
500

>  <MolWeight> (107)
164.20

>  <Nickname> (107)
Eugenol

>  <other Names> (107)
3-Methoxy-4-hydroxy-allylbenzene, Allylguaiacol, Eugenic acid, Caryophyllic acid

>  <LD50-mou-iv> (107)
72

$$$$

csChmFindW11180110282D

 16 15  0  0  0  0  0  0  0  0999 V2000
    6.1027    3.0562    0.0279 C   0  0  0  0  0  0  0  0  0  0  0  0
    4.5092    2.1912    0.0271 C   0  0  0  0  0  0  0  0  0  0  0  0
    7.5772    2.2467    0.0190 C   0  0  0  0  0  0  0  0  0  0  0  0
    3.0341    3.0022    0.0360 C   0  0  0  0  0  0  0  0  0  0  0  0
    9.2077    3.1183    0.0168 C   0  0  0  0  0  0  0  0  0  0  0  0
    1.4142    2.1499    0.0353 C   0  0  0  0  0  0  0  0  0  0  0  0
    0.0000    2.7838    0.0460 O   0  0  0  0  0  0  0  0  0  0  0  0
    1.4690    0.4367    0.0213 O   0  0  0  0  0  0  0  0  0  0  0  0
    6.0552    4.4386    0.0365 H   0  0  0  0  0  0  0  0  0  0  0  0
    4.5470    0.8050    0.0185 H   0  0  0  0  0  0  0  0  0  0  0  0
    7.6265    0.8648    0.0105 H   0  0  0  0  0  0  0  0  0  0  0  0
    2.9370    4.3803    0.0447 H   0  0  0  0  0  0  0  0  0  0  0  0
   10.2671    2.2031    0.0397 H   0  0  0  0  0  0  0  0  0  0  0  0
    9.3236    3.9541    1.1372 H   0  0  0  0  0  0  0  0  0  0  0  0
    9.3389    3.9139   -1.1311 H   0  0  0  0  0  0  0  0  0  0  0  0
    0.3331    0.0000    0.0221 H   0  0  0  0  0  0  0  0  0  0  0  0
  1  2  1  0  0  0  0
  1  3  2  0  0  0  0
  1  9  1  0  0  0  0
  2  4  2  0  0  0  0
  2 10  1  0  0  0  0
  3  5  1  0  0  0  0
  3 11  1  0  0  0  0
  4  6  1  0  0  0  0
  4 12  1  0  0  0  0
  5 13  1  0  0  0  0
  5 14  1  1  0  0  0
  5 15  1  6  0  0  0
  6  7  2  0  0  0  0
  6  8  1  0  0  0  0
  8 16  1  0  0  0  0
M  END
>  <Formula> (108)
C6H8O2

>  <Name> (108)
(E,E)-2,4-HEXADIENOIC ACID

>  <CAS-Nr> (108)
110-44-1

>  <EINECS> (108)
203-768-7

>  <21 CFR> (108)
133.118, 150.161, 182.3089, 150.141, 166.110, 177.2260, 133.123, 133.124, 133.169, 133.173, 133.179, 133.187, 133.188, 172.872, 181.23

>  <LD50-rat-oral> (108)
7360

>  <Compound classification> (108)
Ali-COOH

>  <Microorganism> (108)
Alternaria sp.

>  <Microorganism classification> (108)
fungi

>  <MIC> (108)
400

>  <Annotation> (108)
Potasium salt

>  <Method abbreviation> (108)
ADlT

>  <Ref-Nr> (108)
4115

>  <Marker> (108)
0

>  <Method> (108)
Agar dilution test; Inoculum size: ---; Medium: bacteria in plate count agar, fungi in potato-dextrose agar; pH: 7.0; Incubation temperature: 28 degree Centigrade; Incubation-time: 1-5d; Solubility enhancer: acetone, ethanol

>  <Reference> (108)
Jurd, L., King, A.D., Mihara, K., Stanley, W.L.: Antimicrobial Properties of Natural Phenols and Related Compounds. I. Obustastyrene; Applied Microbiology 21, 507-10 (1971)

>  <mol_id> (108)
203

>  <LD50-mouse-oral> (108)
3200

>  <LD50-mou-ip> (108)
2820

>  <MolWeight> (108)
112.12

>  <Nickname> (108)
Sorbic acid

$$$$

csChmFindW11180110282D

 16 15  0  0  0  0  0  0  0  0999 V2000
    6.1027    3.0562    0.0279 C   0  0  0  0  0  0  0  0  0  0  0  0
    4.5092    2.1912    0.0271 C   0  0  0  0  0  0  0  0  0  0  0  0
    7.5772    2.2467    0.0190 C   0  0  0  0  0  0  0  0  0  0  0  0
    3.0341    3.0022    0.0360 C   0  0  0  0  0  0  0  0  0  0  0  0
    9.2077    3.1183    0.0168 C   0  0  0  0  0  0  0  0  0  0  0  0
    1.4142    2.1499    0.0353 C   0  0  0  0  0  0  0  0  0  0  0  0
    0.0000    2.7838    0.0460 O   0  0  0  0  0  0  0  0  0  0  0  0
    1.4690    0.4367    0.0213 O   0  0  0  0  0  0  0  0  0  0  0  0
    6.0552    4.4386    0.0365 H   0  0  0  0  0  0  0  0  0  0  0  0
    4.5470    0.8050    0.0185 H   0  0  0  0  0  0  0  0  0  0  0  0
    7.6265    0.8648    0.0105 H   0  0  0  0  0  0  0  0  0  0  0  0
    2.9370    4.3803    0.0447 H   0  0  0  0  0  0  0  0  0  0  0  0
   10.2671    2.2031    0.0397 H   0  0  0  0  0  0  0  0  0  0  0  0
    9.3236    3.9541    1.1372 H   0  0  0  0  0  0  0  0  0  0  0  0
    9.3389    3.9139   -1.1311 H   0  0  0  0  0  0  0  0  0  0  0  0
    0.3331    0.0000    0.0221 H   0  0  0  0  0  0  0  0  0  0  0  0
  1  2  1  0  0  0  0
  1  3  2  0  0  0  0
  1  9  1  0  0  0  0
  2  4  2  0  0  0  0
  2 10  1  0  0  0  0
  3  5  1  0  0  0  0
  3 11  1  0  0  0  0
  4  6  1  0  0  0  0
  4 12  1  0  0  0  0
  5 13  1  0  0  0  0
  5 14  1  1  0  0  0
  5 15  1  6  0  0  0
  6  7  2  0  0  0  0
  6  8  1  0  0  0  0
  8 16  1  0  0  0  0
M  END
>  <Formula> (109)
C6H8O2

>  <Name> (109)
(E,E)-2,4-HEXADIENOIC ACID

>  <CAS-Nr> (109)
110-44-1

>  <EINECS> (109)
203-768-7

>  <21 CFR> (109)
133.118, 150.161, 182.3089, 150.141, 166.110, 177.2260, 133.123, 133.124, 133.169, 133.173, 133.179, 133.187, 133.188, 172.872, 181.23

>  <LD50-rat-oral> (109)
7360

>  <Compound classification> (109)
Ali-COOH

>  <Microorganism> (109)
Aspergillus niger

>  <Microorganism type> (109)
A-7705

>  <Microorganism classification> (109)
fungi

>  <NIC> (109)
800

>  <Annotation> (109)
Potasium salt

>  <Method abbreviation> (109)
ADlT

>  <Ref-Nr> (109)
4115

>  <Marker> (109)
0

>  <Method> (109)
Agar dilution test; Inoculum size: ---; Medium: bacteria in plate count agar, fungi in potato-dextrose agar; pH: 7.0; Incubation temperature: 28 degree Centigrade; Incubation-time: 1-5d; Solubility enhancer: acetone, ethanol

>  <Reference> (109)
Jurd, L., King, A.D., Mihara, K., Stanley, W.L.: Antimicrobial Properties of Natural Phenols and Related Compounds. I. Obustastyrene; Applied Microbiology 21, 507-10 (1971)

>  <mol_id> (109)
203

>  <LD50-mouse-oral> (109)
3200

>  <LD50-mou-ip> (109)
2820

>  <MolWeight> (109)
112.12

>  <Nickname> (109)
Sorbic acid

$$$$

csChmFindW11180110282D

 37 37  0  0  0  0  0  0  0  0999 V2000
   15.0606    7.2351    0.3320 C   0  0  0  0  0  0  0  0  0  0  0  0
   13.2977    7.2558    0.2638 C   0  0  0  0  0  0  0  0  0  0  0  0
   15.9482    8.7853    0.3183 C   0  0  0  0  0  0  0  0  0  0  0  0
   12.4180    8.8018    0.1814 C   0  0  0  0  0  0  0  0  0  0  0  0
   15.0791   10.3399    0.2360 C   0  0  0  0  0  0  0  0  0  0  0  0
   17.6869    8.6839    0.3893 O   0  0  0  0  0  0  0  0  0  0  0  0
   13.3143   10.3401    0.1678 C   0  0  0  0  0  0  0  0  0  0  0  0
   10.5567    8.8580    0.1074 C   0  0  0  0  0  0  0  0  0  0  0  0
    9.7923    7.2947    0.1242 O   0  0  0  0  0  0  0  0  0  0  0  0
    9.6333   10.1248    0.0336 O   0  0  0  0  0  0  0  0  0  0  0  0
    7.9661    7.2890    0.0536 C   0  0  0  0  0  0  0  0  0  0  0  0
    7.4412    5.4359    0.0942 C   0  0  0  0  0  0  0  0  0  0  0  0
    5.5272    5.2880    0.0021 C   0  0  0  0  0  0  0  0  0  0  0  0
    4.9752    3.4470    0.0445 C   0  0  0  0  0  0  0  0  0  0  0  0
    3.0607    3.2900   -0.0438 C   0  0  0  0  0  0  0  0  0  0  0  0
    2.4988    1.4396   -0.0016 C   0  0  0  0  0  0  0  0  0  0  0  0
    0.5688    1.3487   -0.0931 C   0  0  0  0  0  0  0  0  0  0  0  0
   15.7705    6.0345    0.3841 H   0  0  0  0  0  0  0  0  0  0  0  0
   12.5799    6.0538    0.2863 H   0  0  0  0  0  0  0  0  0  0  0  0
   15.7863   11.5429    0.2135 H   0  0  0  0  0  0  0  0  0  0  0  0
   18.1398    9.8280    0.3686 H   0  0  0  0  0  0  0  0  0  0  0  0
   12.6052   11.5470    0.1147 H   0  0  0  0  0  0  0  0  0  0  0  0
    7.5508    7.9337   -1.1457 H   0  0  0  0  0  0  0  0  0  0  0  0
    7.4602    8.0100    1.1720 H   0  0  0  0  0  0  0  0  0  0  0  0
    7.9242    4.8316    1.2897 H   0  0  0  0  0  0  0  0  0  0  0  0
    8.0412    4.7479   -0.9983 H   0  0  0  0  0  0  0  0  0  0  0  0
    5.0557    5.9015   -1.1946 H   0  0  0  0  0  0  0  0  0  0  0  0
    4.9391    5.9889    1.0948 H   0  0  0  0  0  0  0  0  0  0  0  0
    5.4496    2.8331    1.2396 H   0  0  0  0  0  0  0  0  0  0  0  0
    5.5622    2.7466   -1.0487 H   0  0  0  0  0  0  0  0  0  0  0  0
    2.5886    3.9069   -1.2387 H   0  0  0  0  0  0  0  0  0  0  0  0
    2.4762    3.9929    1.0497 H   0  0  0  0  0  0  0  0  0  0  0  0
    2.9408    0.8418    1.2006 H   0  0  0  0  0  0  0  0  0  0  0  0
    3.0542    0.7548   -1.1063 H   0  0  0  0  0  0  0  0  0  0  0  0
    0.1464    0.0000   -0.0630 H   0  0  0  0  0  0  0  0  0  0  0  0
    0.1128    1.9471   -1.2897 H   0  0  0  0  0  0  0  0  0  0  0  0
    0.0000    2.0337    1.0047 H   0  0  0  0  0  0  0  0  0  0  0  0
  1  2  2  0  0  0  0
  1  3  1  0  0  0  0
  1 18  1  0  0  0  0
  2  4  1  0  0  0  0
  2 19  1  0  0  0  0
  3  5  2  0  0  0  0
  3  6  1  0  0  0  0
  4  7  2  0  0  0  0
  4  8  1  0  0  0  0
  5  7  1  0  0  0  0
  5 20  1  0  0  0  0
  6 21  1  0  0  0  0
  7 22  1  0  0  0  0
  8  9  1  0  0  0  0
  8 10  2  0  0  0  0
  9 11  1  0  0  0  0
 11 12  1  0  0  0  0
 11 23  1  6  0  0  0
 11 24  1  1  0  0  0
 12 13  1  0  0  0  0
 12 25  1  1  0  0  0
 12 26  1  6  0  0  0
 13 14  1  0  0  0  0
 13 27  1  6  0  0  0
 13 28  1  1  0  0  0
 14 15  1  0  0  0  0
 14 29  1  1  0  0  0
 14 30  1  6  0  0  0
 15 16  1  0  0  0  0
 15 31  1  6  0  0  0
 15 32  1  1  0  0  0
 16 17  1  0  0  0  0
 16 33  1  1  0  0  0
 16 34  1  6  0  0  0
 17 35  1  0  0  0  0
 17 36  1  6  0  0  0
 17 37  1  1  0  0  0
M  END
>  <Formula> (110)
C14H20O3

>  <Name> (110)
4-HYDROXY-BENZOIC ACID, HEPTYL ESTER

>  <CAS-Nr> (110)
1085-12-7

>  <21 CFR> (110)
172.145, 193.285

>  <Compound classification> (110)
Ar-COOR

>  <Microorganism> (110)
Botrytis cinera

>  <Microorganism type> (110)
NRRL 3492

>  <Microorganism classification> (110)
fungi

>  <MIC> (110)
25

>  <Method abbreviation> (110)
ADlT

>  <Ref-Nr> (110)
4115

>  <Marker> (110)
0

>  <Method> (110)
Agar dilution test; Inoculum size: ---; Medium: bacteria in plate count agar, fungi in potato-dextrose agar; pH: 7.0; Incubation temperature: 28 degree Centigrade; Incubation-time: 1-5d; Solubility enhancer: acetone, ethanol

>  <Reference> (110)
Jurd, L., King, A.D., Mihara, K., Stanley, W.L.: Antimicrobial Properties of Natural Phenols and Related Compounds. I. Obustastyrene; Applied Microbiology 21, 507-10 (1971)

>  <mol_id> (110)
1269

>  <MolWeight> (110)
236.31

>  <Nickname> (110)
Heptylparaben

>  <other Names> (110)
n-Heptyl p-hydroxybenzoate

$$$$

csChmFindW11180110282D

 34 33  0  0  0  0  0  0  0  0999 V2000
    7.1864    2.8461   -0.6484 C   0  0  0  0  0  0  0  0  0  0  0  0
    9.0219    3.6574   -0.5138 C   0  0  0  0  0  0  0  0  0  0  0  0
    5.8665    4.0473   -1.5122 C   0  0  0  0  0  0  0  0  0  0  0  0
   10.3096    2.4445    0.3450 C   0  0  0  0  0  0  0  0  0  0  0  0
    9.6995    4.2033   -2.3099 C   0  0  0  0  0  0  0  0  0  0  0  0
    8.7513    5.1844    0.5876 O   0  0  0  0  0  0  0  0  0  0  0  0
    4.0795    3.2923   -1.4907 C   0  0  0  0  0  0  0  0  0  0  0  0
    9.9904    0.8127    0.8593 C   0  0  0  0  0  0  0  0  0  0  0  0
   10.0941    6.2928    0.9756 C   0  0  0  0  0  0  0  0  0  0  0  0
    2.7249    3.9837   -2.3730 C   0  0  0  0  0  0  0  0  0  0  0  0
    9.5259    7.7475    2.1518 C   0  0  0  0  0  0  0  0  0  0  0  0
   11.5701    6.0399    0.3738 O   0  0  0  0  0  0  0  0  0  0  0  0
    0.9526    3.1941   -2.3103 C   0  0  0  0  0  0  0  0  0  0  0  0
    2.9075    5.5734   -3.4726 C   0  0  0  0  0  0  0  0  0  0  0  0
    7.3018    1.6018   -1.4184 H   0  0  0  0  0  0  0  0  0  0  0  0
    6.7265    2.5100    0.7052 H   0  0  0  0  0  0  0  0  0  0  0  0
    5.8602    5.3446   -0.8130 H   0  0  0  0  0  0  0  0  0  0  0  0
    6.2716    4.3146   -2.9029 H   0  0  0  0  0  0  0  0  0  0  0  0
   11.6203    3.0354    0.5152 H   0  0  0  0  0  0  0  0  0  0  0  0
   11.1251    4.5247   -2.2440 H   0  0  0  0  0  0  0  0  0  0  0  0
    9.4979    3.1136   -3.2610 H   0  0  0  0  0  0  0  0  0  0  0  0
    8.9781    5.3862   -2.7751 H   0  0  0  0  0  0  0  0  0  0  0  0
    3.9000    2.1068   -0.6876 H   0  0  0  0  0  0  0  0  0  0  0  0
   11.0161    0.0000    1.4579 H   0  0  0  0  0  0  0  0  0  0  0  0
    8.7144    0.1638    0.7301 H   0  0  0  0  0  0  0  0  0  0  0  0
    9.9295    9.0218    1.5578 H   0  0  0  0  0  0  0  0  0  0  0  0
    8.0774    7.7322    2.3464 H   0  0  0  0  0  0  0  0  0  0  0  0
   10.1906    7.5895    3.4458 H   0  0  0  0  0  0  0  0  0  0  0  0
    0.5016    2.8643   -3.6644 H   0  0  0  0  0  0  0  0  0  0  0  0
    0.9319    1.9723   -1.5058 H   0  0  0  0  0  0  0  0  0  0  0  0
    0.0000    4.1450   -1.7314 H   0  0  0  0  0  0  0  0  0  0  0  0
    1.6022    6.0795   -3.8962 H   0  0  0  0  0  0  0  0  0  0  0  0
    3.5997    6.6329   -2.7337 H   0  0  0  0  0  0  0  0  0  0  0  0
    3.6965    5.2696   -4.6702 H   0  0  0  0  0  0  0  0  0  0  0  0
  1  2  1  0  0  0  0
  1  3  1  0  0  0  0
  1 15  1  6  0  0  0
  1 16  1  1  0  0  0
  2  4  1  0  0  0  0
  2  5  1  6  0  0  0
  2  6  1  1  0  0  0
  3  7  1  0  0  0  0
  3 17  1  1  0  0  0
  3 18  1  6  0  0  0
  4  8  2  0  0  0  0
  4 19  1  0  0  0  0
  5 20  1  0  0  0  0
  5 21  1  6  0  0  0
  5 22  1  0  0  0  0
  6  9  1  0  0  0  0
  7 10  2  0  0  0  0
  7 23  1  1  0  0  0
  8 24  1  0  0  0  0
  8 25  1  0  0  0  0
  9 11  1  1  0  0  0
  9 12  2  0  0  0  0
 10 13  1  0  0  0  0
 10 14  1  6  0  0  0
 11 26  1  0  0  0  0
 11 27  1  0  0  0  0
 11 28  1  1  0  0  0
 13 29  1  6  0  0  0
 13 30  1  1  0  0  0
 13 31  1  0  0  0  0
 14 32  1  0  0  0  0
 14 33  1  1  0  0  0
 14 34  1  6  0  0  0
M  END
>  <Formula> (111)
C12H20O2

>  <Name> (111)
3,7-DIMETHYL-1,6-OCTADIEN-3-OL, ACETATE

>  <CAS-Nr> (111)
115-95-7

>  <EINECS> (111)
204-116-4, 254-806-4

>  <21 CFR> (111)
182.60, 582.60

>  <LD50-rat-oral> (111)
13934

>  <Compound classification> (111)
Monoterpene

>  <Microorganism> (111)
Candida albicans

>  <Microorganism type> (111)
ATCC 10231

>  <Microorganism classification> (111)
yeast

>  <Inhibition zone> (111)
0

>  <VPT evaluation> (111)
1

>  <Method abbreviation> (111)
VPT

>  <Ref-Nr> (111)
4138

>  <Marker> (111)
0

>  <Method> (111)
Vapor phase test; Inoculum size: adjusted; Medium: Sabouraud maltose agar; pH: ---; Incubation-temperature: 22 degrees Centigrade; Incubation-time: 5d; Compound was given to aluminum cup hanging below agar surface, respectively, distance from agar surface 5 mm. Activity was indicated by formation of inhibition zone

>  <Reference> (111)
Maruzzella, J.C., Chiaramonte, J.S., Garofalo, M.M.: Effects of Vapors of Aromatic Compounds on Fungi; Journal of Pharmaceutical Sciences 50, 665-8 (1961)

>  <mol_id> (111)
269

>  <LD50-mouse-oral> (111)
12000

>  <MolWeight> (111)
196.28

>  <Nickname> (111)
Linalyl acetate

>  <other Names> (111)
Bergamol

$$$$

csChmFindW11180110282D

 24 24  0  0  0  0  0  0  0  0999 V2000
    7.9403    5.4393    1.2459 C   0  0  0  0  0  0  0  0  0  0  0  0
    7.0715    3.9032    1.1169 C   0  0  0  0  0  0  0  0  0  0  0  0
    7.0436    6.9418    1.2706 C   0  0  0  0  0  0  0  0  0  0  0  0
    9.6533    5.5396    1.3495 O   0  0  0  0  0  0  0  0  0  0  0  0
    5.3313    3.8844    1.0176 C   0  0  0  0  0  0  0  0  0  0  0  0
    8.0859    2.4972    1.0977 O   0  0  0  0  0  0  0  0  0  0  0  0
    5.3043    6.9088    1.1697 C   0  0  0  0  0  0  0  0  0  0  0  0
    4.4421    5.3943    1.0446 C   0  0  0  0  0  0  0  0  0  0  0  0
    7.2456    0.9312    1.0245 C   0  0  0  0  0  0  0  0  0  0  0  0
    2.5800    5.3709    0.9558 C   0  0  0  0  0  0  0  0  0  0  0  0
    1.9625    4.8221   -0.7096 C   0  0  0  0  0  0  0  0  0  0  0  0
    0.6867    5.5375   -1.5034 C   0  0  0  0  0  0  0  0  0  0  0  0
    7.7279    8.1301    1.3693 H   0  0  0  0  0  0  0  0  0  0  0  0
   10.0991    4.4125    1.3189 H   0  0  0  0  0  0  0  0  0  0  0  0
    4.6447    2.6976    0.9179 H   0  0  0  0  0  0  0  0  0  0  0  0
    4.6074    8.0955    1.1881 H   0  0  0  0  0  0  0  0  0  0  0  0
    8.2910    0.0000    1.0470 H   0  0  0  0  0  0  0  0  0  0  0  0
    6.5127    0.8222   -0.1601 H   0  0  0  0  0  0  0  0  0  0  0  0
    6.4124    0.7665    2.1338 H   0  0  0  0  0  0  0  0  0  0  0  0
    2.0705    6.6423    1.2716 H   0  0  0  0  0  0  0  0  0  0  0  0
    2.0879    4.4776    1.9283 H   0  0  0  0  0  0  0  0  0  0  0  0
    2.6384    3.7511   -1.2561 H   0  0  0  0  0  0  0  0  0  0  0  0
    0.2434    5.0923   -2.7240 H   0  0  0  0  0  0  0  0  0  0  0  0
    0.0000    6.6121   -0.9949 H   0  0  0  0  0  0  0  0  0  0  0  0
  1  2  2  0  0  0  0
  1  3  1  0  0  0  0
  1  4  1  0  0  0  0
  2  5  1  0  0  0  0
  2  6  1  0  0  0  0
  3  7  2  0  0  0  0
  3 13  1  0  0  0  0
  4 14  1  0  0  0  0
  5  8  2  0  0  0  0
  5 15  1  0  0  0  0
  6  9  1  0  0  0  0
  7  8  1  0  0  0  0
  7 16  1  0  0  0  0
  8 10  1  0  0  0  0
  9 17  1  0  0  0  0
  9 18  1  6  0  0  0
  9 19  1  1  0  0  0
 10 11  1  6  0  0  0
 10 20  1  0  0  0  0
 10 21  1  1  0  0  0
 11 12  2  0  0  0  0
 11 22  1  0  0  0  0
 12 23  1  6  0  0  0
 12 24  1  0  0  0  0
M  END
>  <Formula> (112)
C10H12O2

>  <Name> (112)
2-METHOXY-4-(2-PROPENYL)-PHENOL

>  <CAS-Nr> (112)
97-53-0

>  <EINECS> (112)
202-589-1

>  <21 CFR> (112)
184.1257, 175.105, 177.2800, 582.60

>  <LD50-rat-oral> (112)
1930

>  <Compound classification> (112)
Phenylpropane

>  <Microorganism> (112)
Streptococcus sp.

>  <Microorganism classification> (112)
Bac+

>  <Annotation> (112)
inhibitory properties

>  <Method abbreviation> (112)
other

>  <Ref-Nr> (112)
4148

>  <Marker> (112)
0

>  <Method> (112)
other: method not included in abstract (Chem. Zbl. 14401, 1963)

>  <Reference> (112)
Tschuiko, O.W., Borissjuk, J.G., Pawlotzka, J.G.: Ueber die Wirksamkeit der aetherischen Oele und ihrer Komponenten auf verschiedene Mikrobengruppen. 1. Mitt. Untersuchung der antibakteriellen und protistoiden Eigenschaften einiger aetherischer Oele und ihrer Bestandteile; Pharmaz. J. (Kiew) 15, (5) 54-58 (1960) [Chem. Zbl. 14401 (1963)]

>  <mol_id> (112)
118

>  <LD50-mouse-oral> (112)
3000

>  <LD50-mou-ip> (112)
500

>  <MolWeight> (112)
164.20

>  <Nickname> (112)
Eugenol

>  <other Names> (112)
3-Methoxy-4-hydroxy-allylbenzene, Allylguaiacol, Eugenic acid, Caryophyllic acid

>  <LD50-mou-iv> (112)
72

$$$$

csChmFindW11180110282D

 24 24  0  0  0  0  0  0  0  0999 V2000
    7.9403    5.4393    1.2459 C   0  0  0  0  0  0  0  0  0  0  0  0
    7.0715    3.9032    1.1169 C   0  0  0  0  0  0  0  0  0  0  0  0
    7.0436    6.9418    1.2706 C   0  0  0  0  0  0  0  0  0  0  0  0
    9.6533    5.5396    1.3495 O   0  0  0  0  0  0  0  0  0  0  0  0
    5.3313    3.8844    1.0176 C   0  0  0  0  0  0  0  0  0  0  0  0
    8.0859    2.4972    1.0977 O   0  0  0  0  0  0  0  0  0  0  0  0
    5.3043    6.9088    1.1697 C   0  0  0  0  0  0  0  0  0  0  0  0
    4.4421    5.3943    1.0446 C   0  0  0  0  0  0  0  0  0  0  0  0
    7.2456    0.9312    1.0245 C   0  0  0  0  0  0  0  0  0  0  0  0
    2.5800    5.3709    0.9558 C   0  0  0  0  0  0  0  0  0  0  0  0
    1.9625    4.8221   -0.7096 C   0  0  0  0  0  0  0  0  0  0  0  0
    0.6867    5.5375   -1.5034 C   0  0  0  0  0  0  0  0  0  0  0  0
    7.7279    8.1301    1.3693 H   0  0  0  0  0  0  0  0  0  0  0  0
   10.0991    4.4125    1.3189 H   0  0  0  0  0  0  0  0  0  0  0  0
    4.6447    2.6976    0.9179 H   0  0  0  0  0  0  0  0  0  0  0  0
    4.6074    8.0955    1.1881 H   0  0  0  0  0  0  0  0  0  0  0  0
    8.2910    0.0000    1.0470 H   0  0  0  0  0  0  0  0  0  0  0  0
    6.5127    0.8222   -0.1601 H   0  0  0  0  0  0  0  0  0  0  0  0
    6.4124    0.7665    2.1338 H   0  0  0  0  0  0  0  0  0  0  0  0
    2.0705    6.6423    1.2716 H   0  0  0  0  0  0  0  0  0  0  0  0
    2.0879    4.4776    1.9283 H   0  0  0  0  0  0  0  0  0  0  0  0
    2.6384    3.7511   -1.2561 H   0  0  0  0  0  0  0  0  0  0  0  0
    0.2434    5.0923   -2.7240 H   0  0  0  0  0  0  0  0  0  0  0  0
    0.0000    6.6121   -0.9949 H   0  0  0  0  0  0  0  0  0  0  0  0
  1  2  2  0  0  0  0
  1  3  1  0  0  0  0
  1  4  1  0  0  0  0
  2  5  1  0  0  0  0
  2  6  1  0  0  0  0
  3  7  2  0  0  0  0
  3 13  1  0  0  0  0
  4 14  1  0  0  0  0
  5  8  2  0  0  0  0
  5 15  1  0  0  0  0
  6  9  1  0  0  0  0
  7  8  1  0  0  0  0
  7 16  1  0  0  0  0
  8 10  1  0  0  0  0
  9 17  1  0  0  0  0
  9 18  1  6  0  0  0
  9 19  1  1  0  0  0
 10 11  1  6  0  0  0
 10 20  1  0  0  0  0
 10 21  1  1  0  0  0
 11 12  2  0  0  0  0
 11 22  1  0  0  0  0
 12 23  1  6  0  0  0
 12 24  1  0  0  0  0
M  END
>  <Formula> (113)
C10H12O2

>  <Name> (113)
2-METHOXY-4-(2-PROPENYL)-PHENOL

>  <CAS-Nr> (113)
97-53-0

>  <EINECS> (113)
202-589-1

>  <21 CFR> (113)
184.1257, 175.105, 177.2800, 582.60

>  <LD50-rat-oral> (113)
1930

>  <Compound classification> (113)
Phenylpropane

>  <Microorganism> (113)
Vibrio parahaemolyticus

>  <Microorganism type> (113)
NCMB 1902

>  <Microorganism classification> (113)
Bac-

>  <MIC> (113)
50

>  <Annotation> (113)
MIC: 10E7 cells/plate-data

>  <Method abbreviation> (113)
ADlT

>  <Ref-Nr> (113)
4229

>  <Marker> (113)
0

>  <Method> (113)
Agar dilution test; Inoculum size: 10E5-10E7 cells/plate; Medium: S.typhimurium in nutrient agar, S.aureus in brain heart infusion agar, V.parahaemolyticus in Tryptic soy agar; pH: 6.9, 7.5, 7.4 respectively; Incubation-temperature: 37 degrees Centigrade; Incubation-time: 24h; Solubility enhancer: ethanol; inoculum size was varied

>  <Reference> (113)
Karapinar, M., Aktug, S.E.: Inhibition of Food-borne Pathogens by Thymol, Eugenol, Menthol and Anethole; International Journal of Food Microbiology 4, 161-6 (1987)

>  <mol_id> (113)
118

>  <LD50-mouse-oral> (113)
3000

>  <LD50-mou-ip> (113)
500

>  <MolWeight> (113)
164.20

>  <Nickname> (113)
Eugenol

>  <other Names> (113)
3-Methoxy-4-hydroxy-allylbenzene, Allylguaiacol, Eugenic acid, Caryophyllic acid

>  <LD50-mou-iv> (113)
72

$$$$

csChmFindW11180110282D

 24 24  0  0  0  0  0  0  0  0999 V2000
    3.1884    5.5241   -0.3866 C   0  0  0  0  0  0  0  0  0  0  0  0
    4.8749    5.4606   -0.6520 C   0  0  0  0  0  0  0  0  0  0  0  0
    2.1001    4.1429   -0.0424 C   0  0  0  0  0  0  0  0  0  0  0  0
    2.3501    7.2260   -0.4566 C   0  0  0  0  0  0  0  0  0  0  0  0
    5.9634    4.0444   -0.6568 C   0  0  0  0  0  0  0  0  0  0  0  0
    2.4578    2.4776    0.0946 C   0  0  0  0  0  0  0  0  0  0  0  0
    1.0588    7.2988   -1.8548 C   0  0  0  0  0  0  0  0  0  0  0  0
    1.5629    7.6733    1.2189 C   0  0  0  0  0  0  0  0  0  0  0  0
    5.6354    2.4022   -0.4119 C   0  0  0  0  0  0  0  0  0  0  0  0
    4.0612    1.5603   -0.0639 C   0  0  0  0  0  0  0  0  0  0  0  0
    1.0758    1.4869    0.4416 O   0  0  0  0  0  0  0  0  0  0  0  0
    4.0179    0.0000    0.1177 O   0  0  0  0  0  0  0  0  0  0  0  0
    5.5286    6.6648   -0.9036 H   0  0  0  0  0  0  0  0  0  0  0  0
    0.7574    4.4781    0.1403 H   0  0  0  0  0  0  0  0  0  0  0  0
    3.3382    8.2047   -0.7381 H   0  0  0  0  0  0  0  0  0  0  0  0
    7.2974    4.3729   -0.9065 H   0  0  0  0  0  0  0  0  0  0  0  0
    0.5343    8.5968   -1.9470 H   0  0  0  0  0  0  0  0  0  0  0  0
    0.0000    6.4116   -1.6126 H   0  0  0  0  0  0  0  0  0  0  0  0
    1.6475    6.9644   -3.0828 H   0  0  0  0  0  0  0  0  0  0  0  0
    1.0501    8.9783    1.1669 H   0  0  0  0  0  0  0  0  0  0  0  0
    2.5190    7.6074    2.2424 H   0  0  0  0  0  0  0  0  0  0  0  0
    0.5125    6.7992    1.5342 H   0  0  0  0  0  0  0  0  0  0  0  0
    6.7036    1.5088   -0.4767 H   0  0  0  0  0  0  0  0  0  0  0  0
    1.4326    0.3186    0.5155 H   0  0  0  0  0  0  0  0  0  0  0  0
  1  2  2  0  0  0  0
  1  3  1  0  0  0  0
  1  4  1  0  0  0  0
  2  5  1  0  0  0  0
  2 13  1  0  0  0  0
  3  6  2  0  0  0  0
  3 14  1  0  0  0  0
  4  7  1  6  0  0  0
  4  8  1  1  0  0  0
  4 15  1  0  0  0  0
  5  9  2  0  0  0  0
  5 16  1  0  0  0  0
  6 10  1  0  0  0  0
  6 11  1  0  0  0  0
  7 17  1  0  0  0  0
  7 18  1  0  0  0  0
  7 19  1  6  0  0  0
  8 20  1  0  0  0  0
  8 21  1  1  0  0  0
  8 22  1  0  0  0  0
  9 10  1  0  0  0  0
  9 23  1  0  0  0  0
 10 12  2  0  0  0  0
 11 24  1  0  0  0  0
M  END
>  <Formula> (114)
C10H12O2

>  <Name> (114)
2-HYDROXY-4-ISOPROPYL-2,4,6-CYCLOHEPTATRIENONE

>  <CAS-Nr> (114)
499-44-5

>  <EINECS> (114)
207-880-7

>  <LD50-rat-oral> (114)
>500

>  <Compound classification> (114)
Monoterpene

>  <Microorganism> (114)
Trichophyton mentagrophytes var. interdigitale

>  <Publication strain name> (114)
T. interdigitale

>  <Microorganism classification> (114)
fungi

>  <MIC> (114)
16

>  <Method abbreviation> (114)
SDT

>  <Ref-Nr> (114)
4235

>  <Marker> (114)
0

>  <Method> (114)
Serial dilution test; method in Japanese - not translated

>  <Reference> (114)
Okazaki, K., Homma, A.: Antibacterial Activity of Higher Plants. XXVI. Antimicrobial Effect of Essential Oils (7). On the Oil of Thuja dolabrata and its Components; Journal of the Pharmaceutical Society of Japan [Yakugaku Zasshi] 74, 174-6 (1954)

>  <mol_id> (114)
179

>  <LD50-mouse-oral> (114)
760

>  <LD50-mou-ip> (114)
85

>  <MolWeight> (114)
164.20

>  <Nickname> (114)
Hinokitiol

>  <other Names> (114)
beta-Thujaplicin, 4-Isopropyltropolone

>  <LD50-mou-iv> (114)
128

$$$$

csChmFindW11180110282D

 24 24  0  0  0  0  0  0  0  0999 V2000
    3.1884    5.5241   -0.3866 C   0  0  0  0  0  0  0  0  0  0  0  0
    4.8749    5.4606   -0.6520 C   0  0  0  0  0  0  0  0  0  0  0  0
    2.1001    4.1429   -0.0424 C   0  0  0  0  0  0  0  0  0  0  0  0
    2.3501    7.2260   -0.4566 C   0  0  0  0  0  0  0  0  0  0  0  0
    5.9634    4.0444   -0.6568 C   0  0  0  0  0  0  0  0  0  0  0  0
    2.4578    2.4776    0.0946 C   0  0  0  0  0  0  0  0  0  0  0  0
    1.0588    7.2988   -1.8548 C   0  0  0  0  0  0  0  0  0  0  0  0
    1.5629    7.6733    1.2189 C   0  0  0  0  0  0  0  0  0  0  0  0
    5.6354    2.4022   -0.4119 C   0  0  0  0  0  0  0  0  0  0  0  0
    4.0612    1.5603   -0.0639 C   0  0  0  0  0  0  0  0  0  0  0  0
    1.0758    1.4869    0.4416 O   0  0  0  0  0  0  0  0  0  0  0  0
    4.0179    0.0000    0.1177 O   0  0  0  0  0  0  0  0  0  0  0  0
    5.5286    6.6648   -0.9036 H   0  0  0  0  0  0  0  0  0  0  0  0
    0.7574    4.4781    0.1403 H   0  0  0  0  0  0  0  0  0  0  0  0
    3.3382    8.2047   -0.7381 H   0  0  0  0  0  0  0  0  0  0  0  0
    7.2974    4.3729   -0.9065 H   0  0  0  0  0  0  0  0  0  0  0  0
    0.5343    8.5968   -1.9470 H   0  0  0  0  0  0  0  0  0  0  0  0
    0.0000    6.4116   -1.6126 H   0  0  0  0  0  0  0  0  0  0  0  0
    1.6475    6.9644   -3.0828 H   0  0  0  0  0  0  0  0  0  0  0  0
    1.0501    8.9783    1.1669 H   0  0  0  0  0  0  0  0  0  0  0  0
    2.5190    7.6074    2.2424 H   0  0  0  0  0  0  0  0  0  0  0  0
    0.5125    6.7992    1.5342 H   0  0  0  0  0  0  0  0  0  0  0  0
    6.7036    1.5088   -0.4767 H   0  0  0  0  0  0  0  0  0  0  0  0
    1.4326    0.3186    0.5155 H   0  0  0  0  0  0  0  0  0  0  0  0
  1  2  2  0  0  0  0
  1  3  1  0  0  0  0
  1  4  1  0  0  0  0
  2  5  1  0  0  0  0
  2 13  1  0  0  0  0
  3  6  2  0  0  0  0
  3 14  1  0  0  0  0
  4  7  1  6  0  0  0
  4  8  1  1  0  0  0
  4 15  1  0  0  0  0
  5  9  2  0  0  0  0
  5 16  1  0  0  0  0
  6 10  1  0  0  0  0
  6 11  1  0  0  0  0
  7 17  1  0  0  0  0
  7 18  1  0  0  0  0
  7 19  1  6  0  0  0
  8 20  1  0  0  0  0
  8 21  1  1  0  0  0
  8 22  1  0  0  0  0
  9 10  1  0  0  0  0
  9 23  1  0  0  0  0
 10 12  2  0  0  0  0
 11 24  1  0  0  0  0
M  END
>  <Formula> (115)
C10H12O2

>  <Name> (115)
2-HYDROXY-4-ISOPROPYL-2,4,6-CYCLOHEPTATRIENONE

>  <CAS-Nr> (115)
499-44-5

>  <EINECS> (115)
207-880-7

>  <LD50-rat-oral> (115)
>500

>  <Compound classification> (115)
Monoterpene

>  <Microorganism> (115)
Trichophyton rubrum

>  <Publication strain name> (115)
Trichophyton purpureum

>  <Microorganism classification> (115)
fungi

>  <MIC> (115)
8

>  <Method abbreviation> (115)
SDT

>  <Ref-Nr> (115)
4235

>  <Marker> (115)
0

>  <Method> (115)
Serial dilution test; method in Japanese - not translated

>  <Reference> (115)
Okazaki, K., Homma, A.: Antibacterial Activity of Higher Plants. XXVI. Antimicrobial Effect of Essential Oils (7). On the Oil of Thuja dolabrata and its Components; Journal of the Pharmaceutical Society of Japan [Yakugaku Zasshi] 74, 174-6 (1954)

>  <mol_id> (115)
179

>  <LD50-mouse-oral> (115)
760

>  <LD50-mou-ip> (115)
85

>  <MolWeight> (115)
164.20

>  <Nickname> (115)
Hinokitiol

>  <other Names> (115)
beta-Thujaplicin, 4-Isopropyltropolone

>  <LD50-mou-iv> (115)
128

$$$$

csChmFindW11180110282D

 24 24  0  0  0  0  0  0  0  0999 V2000
    3.1884    5.5241   -0.3866 C   0  0  0  0  0  0  0  0  0  0  0  0
    4.8749    5.4606   -0.6520 C   0  0  0  0  0  0  0  0  0  0  0  0
    2.1001    4.1429   -0.0424 C   0  0  0  0  0  0  0  0  0  0  0  0
    2.3501    7.2260   -0.4566 C   0  0  0  0  0  0  0  0  0  0  0  0
    5.9634    4.0444   -0.6568 C   0  0  0  0  0  0  0  0  0  0  0  0
    2.4578    2.4776    0.0946 C   0  0  0  0  0  0  0  0  0  0  0  0
    1.0588    7.2988   -1.8548 C   0  0  0  0  0  0  0  0  0  0  0  0
    1.5629    7.6733    1.2189 C   0  0  0  0  0  0  0  0  0  0  0  0
    5.6354    2.4022   -0.4119 C   0  0  0  0  0  0  0  0  0  0  0  0
    4.0612    1.5603   -0.0639 C   0  0  0  0  0  0  0  0  0  0  0  0
    1.0758    1.4869    0.4416 O   0  0  0  0  0  0  0  0  0  0  0  0
    4.0179    0.0000    0.1177 O   0  0  0  0  0  0  0  0  0  0  0  0
    5.5286    6.6648   -0.9036 H   0  0  0  0  0  0  0  0  0  0  0  0
    0.7574    4.4781    0.1403 H   0  0  0  0  0  0  0  0  0  0  0  0
    3.3382    8.2047   -0.7381 H   0  0  0  0  0  0  0  0  0  0  0  0
    7.2974    4.3729   -0.9065 H   0  0  0  0  0  0  0  0  0  0  0  0
    0.5343    8.5968   -1.9470 H   0  0  0  0  0  0  0  0  0  0  0  0
    0.0000    6.4116   -1.6126 H   0  0  0  0  0  0  0  0  0  0  0  0
    1.6475    6.9644   -3.0828 H   0  0  0  0  0  0  0  0  0  0  0  0
    1.0501    8.9783    1.1669 H   0  0  0  0  0  0  0  0  0  0  0  0
    2.5190    7.6074    2.2424 H   0  0  0  0  0  0  0  0  0  0  0  0
    0.5125    6.7992    1.5342 H   0  0  0  0  0  0  0  0  0  0  0  0
    6.7036    1.5088   -0.4767 H   0  0  0  0  0  0  0  0  0  0  0  0
    1.4326    0.3186    0.5155 H   0  0  0  0  0  0  0  0  0  0  0  0
  1  2  2  0  0  0  0
  1  3  1  0  0  0  0
  1  4  1  0  0  0  0
  2  5  1  0  0  0  0
  2 13  1  0  0  0  0
  3  6  2  0  0  0  0
  3 14  1  0  0  0  0
  4  7  1  6  0  0  0
  4  8  1  1  0  0  0
  4 15  1  0  0  0  0
  5  9  2  0  0  0  0
  5 16  1  0  0  0  0
  6 10  1  0  0  0  0
  6 11  1  0  0  0  0
  7 17  1  0  0  0  0
  7 18  1  0  0  0  0
  7 19  1  6  0  0  0
  8 20  1  0  0  0  0
  8 21  1  1  0  0  0
  8 22  1  0  0  0  0
  9 10  1  0  0  0  0
  9 23  1  0  0  0  0
 10 12  2  0  0  0  0
 11 24  1  0  0  0  0
M  END
>  <Formula> (116)
C10H12O2

>  <Name> (116)
2-HYDROXY-4-ISOPROPYL-2,4,6-CYCLOHEPTATRIENONE

>  <CAS-Nr> (116)
499-44-5

>  <EINECS> (116)
207-880-7

>  <LD50-rat-oral> (116)
>500

>  <Compound classification> (116)
Monoterpene

>  <Microorganism> (116)
Trichophyton schoenleinii

>  <Publication strain name> (116)
Achorion schoenleinii

>  <Microorganism classification> (116)
fungi

>  <MIC> (116)
8

>  <Method abbreviation> (116)
SDT

>  <Ref-Nr> (116)
4235

>  <Marker> (116)
0

>  <Method> (116)
Serial dilution test; method in Japanese - not translated

>  <Reference> (116)
Okazaki, K., Homma, A.: Antibacterial Activity of Higher Plants. XXVI. Antimicrobial Effect of Essential Oils (7). On the Oil of Thuja dolabrata and its Components; Journal of the Pharmaceutical Society of Japan [Yakugaku Zasshi] 74, 174-6 (1954)

>  <mol_id> (116)
179

>  <LD50-mouse-oral> (116)
760

>  <LD50-mou-ip> (116)
85

>  <MolWeight> (116)
164.20

>  <Nickname> (116)
Hinokitiol

>  <other Names> (116)
beta-Thujaplicin, 4-Isopropyltropolone

>  <LD50-mou-iv> (116)
128

$$$$

csChmFindW11180110282D

 24 24  0  0  0  0  0  0  0  0999 V2000
    7.9403    5.4393    1.2459 C   0  0  0  0  0  0  0  0  0  0  0  0
    7.0715    3.9032    1.1169 C   0  0  0  0  0  0  0  0  0  0  0  0
    7.0436    6.9418    1.2706 C   0  0  0  0  0  0  0  0  0  0  0  0
    9.6533    5.5396    1.3495 O   0  0  0  0  0  0  0  0  0  0  0  0
    5.3313    3.8844    1.0176 C   0  0  0  0  0  0  0  0  0  0  0  0
    8.0859    2.4972    1.0977 O   0  0  0  0  0  0  0  0  0  0  0  0
    5.3043    6.9088    1.1697 C   0  0  0  0  0  0  0  0  0  0  0  0
    4.4421    5.3943    1.0446 C   0  0  0  0  0  0  0  0  0  0  0  0
    7.2456    0.9312    1.0245 C   0  0  0  0  0  0  0  0  0  0  0  0
    2.5800    5.3709    0.9558 C   0  0  0  0  0  0  0  0  0  0  0  0
    1.9625    4.8221   -0.7096 C   0  0  0  0  0  0  0  0  0  0  0  0
    0.6867    5.5375   -1.5034 C   0  0  0  0  0  0  0  0  0  0  0  0
    7.7279    8.1301    1.3693 H   0  0  0  0  0  0  0  0  0  0  0  0
   10.0991    4.4125    1.3189 H   0  0  0  0  0  0  0  0  0  0  0  0
    4.6447    2.6976    0.9179 H   0  0  0  0  0  0  0  0  0  0  0  0
    4.6074    8.0955    1.1881 H   0  0  0  0  0  0  0  0  0  0  0  0
    8.2910    0.0000    1.0470 H   0  0  0  0  0  0  0  0  0  0  0  0
    6.5127    0.8222   -0.1601 H   0  0  0  0  0  0  0  0  0  0  0  0
    6.4124    0.7665    2.1338 H   0  0  0  0  0  0  0  0  0  0  0  0
    2.0705    6.6423    1.2716 H   0  0  0  0  0  0  0  0  0  0  0  0
    2.0879    4.4776    1.9283 H   0  0  0  0  0  0  0  0  0  0  0  0
    2.6384    3.7511   -1.2561 H   0  0  0  0  0  0  0  0  0  0  0  0
    0.2434    5.0923   -2.7240 H   0  0  0  0  0  0  0  0  0  0  0  0
    0.0000    6.6121   -0.9949 H   0  0  0  0  0  0  0  0  0  0  0  0
  1  2  2  0  0  0  0
  1  3  1  0  0  0  0
  1  4  1  0  0  0  0
  2  5  1  0  0  0  0
  2  6  1  0  0  0  0
  3  7  2  0  0  0  0
  3 13  1  0  0  0  0
  4 14  1  0  0  0  0
  5  8  2  0  0  0  0
  5 15  1  0  0  0  0
  6  9  1  0  0  0  0
  7  8  1  0  0  0  0
  7 16  1  0  0  0  0
  8 10  1  0  0  0  0
  9 17  1  0  0  0  0
  9 18  1  6  0  0  0
  9 19  1  1  0  0  0
 10 11  1  6  0  0  0
 10 20  1  0  0  0  0
 10 21  1  1  0  0  0
 11 12  2  0  0  0  0
 11 22  1  0  0  0  0
 12 23  1  6  0  0  0
 12 24  1  0  0  0  0
M  END
>  <Formula> (117)
C10H12O2

>  <Name> (117)
2-METHOXY-4-(2-PROPENYL)-PHENOL

>  <CAS-Nr> (117)
97-53-0

>  <EINECS> (117)
202-589-1

>  <21 CFR> (117)
184.1257, 175.105, 177.2800, 582.60

>  <LD50-rat-oral> (117)
1930

>  <Compound classification> (117)
Phenylpropane

>  <Microorganism> (117)
Acinetobacter sp.

>  <Microorganism classification> (117)
Bac-

>  <MMC> (117)
200

>  <Annotation> (117)
at 30 degree celsius, 5d

>  <Method abbreviation> (117)
SDT

>  <Ref-Nr> (117)
4251

>  <Marker> (117)
0

>  <Method> (117)
Serial dilution test; Inoculum size: ---; Medium: ---; pH: 7.0; Incubation-temperature: 10 degrees Centigrade and 30 degrees Centigrade; Incubation-time: 5-6d; Solubility enhancer: ---; growth was monitored by optical density; details in Japanese - not translated

>  <Reference> (117)
Miyao, S.: Inhibitory Effects of Ethanol Extract on Mace and Eugenol on the Growth of Microorganisms Isolated from Vienna Sausages; Journal of the Food Hygienic Society of Japan (Shokuhin Eiseigaku Zasshi)16, 412-6 (1975)

>  <mol_id> (117)
118

>  <LD50-mouse-oral> (117)
3000

>  <LD50-mou-ip> (117)
500

>  <MolWeight> (117)
164.20

>  <Nickname> (117)
Eugenol

>  <other Names> (117)
3-Methoxy-4-hydroxy-allylbenzene, Allylguaiacol, Eugenic acid, Caryophyllic acid

>  <LD50-mou-iv> (117)
72

$$$$

csChmFindW11180110282D

 24 24  0  0  0  0  0  0  0  0999 V2000
    7.9403    5.4393    1.2459 C   0  0  0  0  0  0  0  0  0  0  0  0
    7.0715    3.9032    1.1169 C   0  0  0  0  0  0  0  0  0  0  0  0
    7.0436    6.9418    1.2706 C   0  0  0  0  0  0  0  0  0  0  0  0
    9.6533    5.5396    1.3495 O   0  0  0  0  0  0  0  0  0  0  0  0
    5.3313    3.8844    1.0176 C   0  0  0  0  0  0  0  0  0  0  0  0
    8.0859    2.4972    1.0977 O   0  0  0  0  0  0  0  0  0  0  0  0
    5.3043    6.9088    1.1697 C   0  0  0  0  0  0  0  0  0  0  0  0
    4.4421    5.3943    1.0446 C   0  0  0  0  0  0  0  0  0  0  0  0
    7.2456    0.9312    1.0245 C   0  0  0  0  0  0  0  0  0  0  0  0
    2.5800    5.3709    0.9558 C   0  0  0  0  0  0  0  0  0  0  0  0
    1.9625    4.8221   -0.7096 C   0  0  0  0  0  0  0  0  0  0  0  0
    0.6867    5.5375   -1.5034 C   0  0  0  0  0  0  0  0  0  0  0  0
    7.7279    8.1301    1.3693 H   0  0  0  0  0  0  0  0  0  0  0  0
   10.0991    4.4125    1.3189 H   0  0  0  0  0  0  0  0  0  0  0  0
    4.6447    2.6976    0.9179 H   0  0  0  0  0  0  0  0  0  0  0  0
    4.6074    8.0955    1.1881 H   0  0  0  0  0  0  0  0  0  0  0  0
    8.2910    0.0000    1.0470 H   0  0  0  0  0  0  0  0  0  0  0  0
    6.5127    0.8222   -0.1601 H   0  0  0  0  0  0  0  0  0  0  0  0
    6.4124    0.7665    2.1338 H   0  0  0  0  0  0  0  0  0  0  0  0
    2.0705    6.6423    1.2716 H   0  0  0  0  0  0  0  0  0  0  0  0
    2.0879    4.4776    1.9283 H   0  0  0  0  0  0  0  0  0  0  0  0
    2.6384    3.7511   -1.2561 H   0  0  0  0  0  0  0  0  0  0  0  0
    0.2434    5.0923   -2.7240 H   0  0  0  0  0  0  0  0  0  0  0  0
    0.0000    6.6121   -0.9949 H   0  0  0  0  0  0  0  0  0  0  0  0
  1  2  2  0  0  0  0
  1  3  1  0  0  0  0
  1  4  1  0  0  0  0
  2  5  1  0  0  0  0
  2  6  1  0  0  0  0
  3  7  2  0  0  0  0
  3 13  1  0  0  0  0
  4 14  1  0  0  0  0
  5  8  2  0  0  0  0
  5 15  1  0  0  0  0
  6  9  1  0  0  0  0
  7  8  1  0  0  0  0
  7 16  1  0  0  0  0
  8 10  1  0  0  0  0
  9 17  1  0  0  0  0
  9 18  1  6  0  0  0
  9 19  1  1  0  0  0
 10 11  1  6  0  0  0
 10 20  1  0  0  0  0
 10 21  1  1  0  0  0
 11 12  2  0  0  0  0
 11 22  1  0  0  0  0
 12 23  1  6  0  0  0
 12 24  1  0  0  0  0
M  END
>  <Formula> (118)
C10H12O2

>  <Name> (118)
2-METHOXY-4-(2-PROPENYL)-PHENOL

>  <CAS-Nr> (118)
97-53-0

>  <EINECS> (118)
202-589-1

>  <21 CFR> (118)
184.1257, 175.105, 177.2800, 582.60

>  <LD50-rat-oral> (118)
1930

>  <Compound classification> (118)
Phenylpropane

>  <Microorganism> (118)
Acinetobacter sp.

>  <Microorganism classification> (118)
Bac-

>  <MMC> (118)
400

>  <Annotation> (118)
at 10 degree celsius, 5d

>  <Method abbreviation> (118)
SDT

>  <Ref-Nr> (118)
4251

>  <Marker> (118)
0

>  <Method> (118)
Serial dilution test; Inoculum size: ---; Medium: ---; pH: 7.0; Incubation-temperature: 10 degrees Centigrade and 30 degrees Centigrade; Incubation-time: 5-6d; Solubility enhancer: ---; growth was monitored by optical density; details in Japanese - not translated

>  <Reference> (118)
Miyao, S.: Inhibitory Effects of Ethanol Extract on Mace and Eugenol on the Growth of Microorganisms Isolated from Vienna Sausages; Journal of the Food Hygienic Society of Japan (Shokuhin Eiseigaku Zasshi)16, 412-6 (1975)

>  <mol_id> (118)
118

>  <LD50-mouse-oral> (118)
3000

>  <LD50-mou-ip> (118)
500

>  <MolWeight> (118)
164.20

>  <Nickname> (118)
Eugenol

>  <other Names> (118)
3-Methoxy-4-hydroxy-allylbenzene, Allylguaiacol, Eugenic acid, Caryophyllic acid

>  <LD50-mou-iv> (118)
72

$$$$

csChmFindW11180110282D

 24 24  0  0  0  0  0  0  0  0999 V2000
    7.9403    5.4393    1.2459 C   0  0  0  0  0  0  0  0  0  0  0  0
    7.0715    3.9032    1.1169 C   0  0  0  0  0  0  0  0  0  0  0  0
    7.0436    6.9418    1.2706 C   0  0  0  0  0  0  0  0  0  0  0  0
    9.6533    5.5396    1.3495 O   0  0  0  0  0  0  0  0  0  0  0  0
    5.3313    3.8844    1.0176 C   0  0  0  0  0  0  0  0  0  0  0  0
    8.0859    2.4972    1.0977 O   0  0  0  0  0  0  0  0  0  0  0  0
    5.3043    6.9088    1.1697 C   0  0  0  0  0  0  0  0  0  0  0  0
    4.4421    5.3943    1.0446 C   0  0  0  0  0  0  0  0  0  0  0  0
    7.2456    0.9312    1.0245 C   0  0  0  0  0  0  0  0  0  0  0  0
    2.5800    5.3709    0.9558 C   0  0  0  0  0  0  0  0  0  0  0  0
    1.9625    4.8221   -0.7096 C   0  0  0  0  0  0  0  0  0  0  0  0
    0.6867    5.5375   -1.5034 C   0  0  0  0  0  0  0  0  0  0  0  0
    7.7279    8.1301    1.3693 H   0  0  0  0  0  0  0  0  0  0  0  0
   10.0991    4.4125    1.3189 H   0  0  0  0  0  0  0  0  0  0  0  0
    4.6447    2.6976    0.9179 H   0  0  0  0  0  0  0  0  0  0  0  0
    4.6074    8.0955    1.1881 H   0  0  0  0  0  0  0  0  0  0  0  0
    8.2910    0.0000    1.0470 H   0  0  0  0  0  0  0  0  0  0  0  0
    6.5127    0.8222   -0.1601 H   0  0  0  0  0  0  0  0  0  0  0  0
    6.4124    0.7665    2.1338 H   0  0  0  0  0  0  0  0  0  0  0  0
    2.0705    6.6423    1.2716 H   0  0  0  0  0  0  0  0  0  0  0  0
    2.0879    4.4776    1.9283 H   0  0  0  0  0  0  0  0  0  0  0  0
    2.6384    3.7511   -1.2561 H   0  0  0  0  0  0  0  0  0  0  0  0
    0.2434    5.0923   -2.7240 H   0  0  0  0  0  0  0  0  0  0  0  0
    0.0000    6.6121   -0.9949 H   0  0  0  0  0  0  0  0  0  0  0  0
  1  2  2  0  0  0  0
  1  3  1  0  0  0  0
  1  4  1  0  0  0  0
  2  5  1  0  0  0  0
  2  6  1  0  0  0  0
  3  7  2  0  0  0  0
  3 13  1  0  0  0  0
  4 14  1  0  0  0  0
  5  8  2  0  0  0  0
  5 15  1  0  0  0  0
  6  9  1  0  0  0  0
  7  8  1  0  0  0  0
  7 16  1  0  0  0  0
  8 10  1  0  0  0  0
  9 17  1  0  0  0  0
  9 18  1  6  0  0  0
  9 19  1  1  0  0  0
 10 11  1  6  0  0  0
 10 20  1  0  0  0  0
 10 21  1  1  0  0  0
 11 12  2  0  0  0  0
 11 22  1  0  0  0  0
 12 23  1  6  0  0  0
 12 24  1  0  0  0  0
M  END
>  <Formula> (119)
C10H12O2

>  <Name> (119)
2-METHOXY-4-(2-PROPENYL)-PHENOL

>  <CAS-Nr> (119)
97-53-0

>  <EINECS> (119)
202-589-1

>  <21 CFR> (119)
184.1257, 175.105, 177.2800, 582.60

>  <LD50-rat-oral> (119)
1930

>  <Compound classification> (119)
Phenylpropane

>  <Microorganism> (119)
Weissella confusa

>  <Publication strain name> (119)
Lactobacillus confusus

>  <Microorganism classification> (119)
Bac+

>  <NIC> (119)
100

>  <Annotation> (119)
incubation time 180 min.

>  <Method abbreviation> (119)
SDT

>  <Ref-Nr> (119)
4440

>  <Marker> (119)
0

>  <Method> (119)
Serial dilution test; Inoculum size: 10E7-10E9 organism/ml; Medium: Glucose-peptone bouillon; pH: ---; Incubation-temperature: 37 degrees Centigrade; Incubation-time: 180 min; Solubility enhancer: ethanol; microbial growth was measured by ATP-content present after 180 min. incubation

>  <Reference> (119)
Lembke, A., Deininger, R.: Wirkungen von Bestandteilen aetherischer Oele auf Bakterien, Pilze: in: Phytotherapie; Grundlagen - Klinik, Praxis. 1. Phytotherapie Kongress Koeln 1987, Hrsg. H.D. Reuter et al. Hippokrates Verlag, Stuttgart (1988)

>  <mol_id> (119)
118

>  <LD50-mouse-oral> (119)
3000

>  <LD50-mou-ip> (119)
500

>  <MolWeight> (119)
164.20

>  <Nickname> (119)
Eugenol

>  <other Names> (119)
3-Methoxy-4-hydroxy-allylbenzene, Allylguaiacol, Eugenic acid, Caryophyllic acid

>  <LD50-mou-iv> (119)
72

$$$$

csChmFindW11180110282D

 28 28  0  0  0  0  0  0  0  0999 V2000
    2.7204    1.0763   -0.0075 C   0  0  0  0  0  0  0  0  0  0  0  0
    4.2938    1.0775   -0.0063 C   0  0  0  0  0  0  0  0  0  0  0  0
    1.9450    2.4693   -0.0074 C   0  0  0  0  0  0  0  0  0  0  0  0
    5.0977    2.4510   -0.0052 C   0  0  0  0  0  0  0  0  0  0  0  0
    2.7390    3.8479   -0.0061 C   0  0  0  0  0  0  0  0  0  0  0  0
    0.3914    2.3963   -0.0084 O   0  0  0  0  0  0  0  0  0  0  0  0
    4.3152    3.8310   -0.0051 C   0  0  0  0  0  0  0  0  0  0  0  0
    6.7594    2.3945   -0.0041 C   0  0  0  0  0  0  0  0  0  0  0  0
    7.4467    3.7873   -0.0032 O   0  0  0  0  0  0  0  0  0  0  0  0
    7.5804    1.2605   -0.0038 O   0  0  0  0  0  0  0  0  0  0  0  0
    9.0774    3.7844   -0.0019 C   0  0  0  0  0  0  0  0  0  0  0  0
    9.5534    5.4362   -0.0013 C   0  0  0  0  0  0  0  0  0  0  0  0
   11.2641    5.5585    0.0005 C   0  0  0  0  0  0  0  0  0  0  0  0
   11.7684    7.1899    0.0008 C   0  0  0  0  0  0  0  0  0  0  0  0
    2.0748    0.0112   -0.0084 H   0  0  0  0  0  0  0  0  0  0  0  0
    4.9277    0.0000   -0.0065 H   0  0  0  0  0  0  0  0  0  0  0  0
    2.1207    4.9288   -0.0060 H   0  0  0  0  0  0  0  0  0  0  0  0
    0.0000    3.4222   -0.0083 H   0  0  0  0  0  0  0  0  0  0  0  0
    4.9560    4.9034   -0.0042 H   0  0  0  0  0  0  0  0  0  0  0  0
    9.4871    3.1729   -1.0371 H   0  0  0  0  0  0  0  0  0  0  0  0
    9.4857    3.1723    1.0335 H   0  0  0  0  0  0  0  0  0  0  0  0
    9.0717    6.0169    1.0208 H   0  0  0  0  0  0  0  0  0  0  0  0
    9.0739    6.0166   -1.0246 H   0  0  0  0  0  0  0  0  0  0  0  0
   11.7338    4.9662   -1.0223 H   0  0  0  0  0  0  0  0  0  0  0  0
   11.7319    4.9659    1.0240 H   0  0  0  0  0  0  0  0  0  0  0  0
   13.0319    7.2589    0.0025 H   0  0  0  0  0  0  0  0  0  0  0  0
   11.3337    7.7924    1.0256 H   0  0  0  0  0  0  0  0  0  0  0  0
   11.3365    7.7917   -1.0256 H   0  0  0  0  0  0  0  0  0  0  0  0
  1  2  2  0  0  0  0
  1  3  1  0  0  0  0
  1 15  1  0  0  0  0
  2  4  1  0  0  0  0
  2 16  1  0  0  0  0
  3  5  2  0  0  0  0
  3  6  1  0  0  0  0
  4  7  2  0  0  0  0
  4  8  1  0  0  0  0
  5  7  1  0  0  0  0
  5 17  1  0  0  0  0
  6 18  1  0  0  0  0
  7 19  1  0  0  0  0
  8  9  1  0  0  0  0
  8 10  2  0  0  0  0
  9 11  1  0  0  0  0
 11 12  1  0  0  0  0
 11 20  1  6  0  0  0
 11 21  1  1  0  0  0
 12 13  1  0  0  0  0
 12 22  1  1  0  0  0
 12 23  1  6  0  0  0
 13 14  1  0  0  0  0
 13 24  1  6  0  0  0
 13 25  1  1  0  0  0
 14 26  1  0  0  0  0
 14 27  1  1  0  0  0
 14 28  1  6  0  0  0
M  END
>  <Formula> (120)
C11H14O3

>  <Name> (120)
4-HYDROXY-BENZOIC ACID, BUTYL ESTER

>  <CAS-Nr> (120)
94-26-8

>  <EINECS> (120)
202-318-7

>  <21 CFR> (120)
172.515

>  <Compound classification> (120)
Ar-COOR

>  <Microorganism> (120)
Moulds

>  <Microorganism type> (120)
in deteriorated syrup

>  <Microorganism classification> (120)
fungi

>  <MIC> (120)
200

>  <Method abbreviation> (120)
ADlT

>  <Ref-Nr> (120)
4541

>  <Marker> (120)
0

>  <Method> (120)
Agar dilution test; Inoculum size: ---; Medium: mycophil agar; pH: ---; Incubation-temperature: 28-29 degrees Centigrade; Incubation-time: 6d; Solubility enhancer: ethanol

>  <Reference> (120)
Lord, C.F., Husa, W.J.: Antimolding Agents for Syrups; Journal of the American Pharmaceutical Association 43, 438 (1954)

>  <mol_id> (120)
997

>  <LD50-mouse-oral> (120)
13200

>  <LD50-mou-ip> (120)
230

>  <MolWeight> (120)
194.22

>  <Nickname> (120)
Butylparaben

>  <other Names> (120)
Butyl p-hydroxybenzoate

$$$$

csChmFindW11180110282D

 27 28  0  0  0  0  0  0  0  0999 V2000
    2.9004    4.4099   -0.5349 C   0  0  0  0  0  0  0  0  0  0  0  0
    1.2040    3.8269   -1.5240 C   0  0  0  0  0  0  0  0  0  0  0  0
    4.4291    3.8959   -1.8253 C   0  0  0  0  0  0  0  0  0  0  0  0
    2.9248    6.2933    0.1026 C   0  0  0  0  0  0  0  0  0  0  0  0
    3.0330    2.9058    0.9152 C   0  0  0  0  0  0  0  0  0  0  0  0
    1.1940    1.7981   -1.4816 C   0  0  0  0  0  0  0  0  0  0  0  0
    0.0896    4.7933   -2.2265 O   0  0  0  0  0  0  0  0  0  0  0  0
    4.4617    1.8463   -1.7738 C   0  0  0  0  0  0  0  0  0  0  0  0
    2.9371    1.3619   -0.4857 C   0  0  0  0  0  0  0  0  0  0  0  0
    4.7447    2.9332    1.9749 C   0  0  0  0  0  0  0  0  0  0  0  0
    1.4828    2.9054    2.2060 C   0  0  0  0  0  0  0  0  0  0  0  0
    5.7151    4.4764   -1.3561 H   0  0  0  0  0  0  0  0  0  0  0  0
    4.1612    4.4086   -3.1954 H   0  0  0  0  0  0  0  0  0  0  0  0
    4.2524    6.6260    0.6890 H   0  0  0  0  0  0  0  0  0  0  0  0
    1.8798    6.4980    1.1443 H   0  0  0  0  0  0  0  0  0  0  0  0
    2.6491    7.2209   -1.0298 H   0  0  0  0  0  0  0  0  0  0  0  0
    1.1746    1.2371   -2.8591 H   0  0  0  0  0  0  0  0  0  0  0  0
    0.0000    1.2924   -0.7517 H   0  0  0  0  0  0  0  0  0  0  0  0
    5.7654    1.3361   -1.2720 H   0  0  0  0  0  0  0  0  0  0  0  0
    4.2330    1.2640   -3.1234 H   0  0  0  0  0  0  0  0  0  0  0  0
    3.0029    0.0000    0.0721 H   0  0  0  0  0  0  0  0  0  0  0  0
    4.7866    1.7584    2.8891 H   0  0  0  0  0  0  0  0  0  0  0  0
    4.8101    4.1760    2.7941 H   0  0  0  0  0  0  0  0  0  0  0  0
    5.9492    2.8912    1.1054 H   0  0  0  0  0  0  0  0  0  0  0  0
    1.3865    1.5805    2.8774 H   0  0  0  0  0  0  0  0  0  0  0  0
    0.1896    3.1864    1.5257 H   0  0  0  0  0  0  0  0  0  0  0  0
    1.6844    3.9511    3.2476 H   0  0  0  0  0  0  0  0  0  0  0  0
  1  2  1  6  0  0  0
  1  3  1  6  0  0  0
  1  4  1  0  0  0  0
  1  5  1  1  0  0  0
  2  6  1  0  0  0  0
  2  7  2  0  0  0  0
  3  8  1  0  0  0  0
  3 12  1  0  0  0  0
  3 13  1  6  0  0  0
  4 14  1  0  0  0  0
  4 15  1  1  0  0  0
  4 16  1  6  0  0  0
  5  9  1  6  0  0  0
  5 10  1  1  0  0  0
  5 11  1  1  0  0  0
  6  9  1  1  0  0  0
  6 17  1  6  0  0  0
  6 18  1  1  0  0  0
  8  9  1  1  0  0  0
  8 19  1  0  0  0  0
  8 20  1  6  0  0  0
  9 21  1  0  0  0  0
 10 22  1  1  0  0  0
 10 23  1  1  0  0  0
 10 24  1  6  0  0  0
 11 25  1  1  0  0  0
 11 26  1  6  0  0  0
 11 27  1  1  0  0  0
M  END
>  <Formula> (121)
C10H16O

>  <Name> (121)
1,7,7-TRIMETHYLBICYCLO[2.2.1]HEPTAN-2-ONE

>  <CAS-Nr> (121)
21368-68-3

>  <EINECS> (121)
200-945-0, 244-350-4

>  <21 CFR> (121)
172.515 (D-Camphor), 175.105

>  <LD50-rat-oral> (121)
3000

>  <Compound classification> (121)
Monoterpene

>  <Microorganism> (121)
Trichophyton mentagrophytes

>  <Microorganism type> (121)
ATCC 9972

>  <Microorganism classification> (121)
fungi

>  <ADT evaluation> (121)
1

>  <Method abbreviation> (121)
ADT

>  <Ref-Nr> (121)
5122

>  <Marker> (121)
0

>  <Method> (121)
Serial dilution test; Inoculum size: 300000 viable organisms; Medium: Tryptone-yeast-glucose broth; pH: 7.0; Incubation-temperature: 37 degrees Centigrade; Incubation-time: 18-24h; Solubility enhancer: ethanol; Agar diffusion test; Medium: Tryptone-yeast-glucose agar, pH = 5.5; Compound application: 20 microliter of 10% ethanolic stock solution on 9.5 mm disk, Incubation-temperature: 37 degrees Centigrade; Incubation-time: 18-24h (Method of Morris et al. J. Am. Oil Chem. 59, 595-603 (1979)

>  <Reference> (121)
Tirillini, B., Velasques, E.R., Pellegrino, R.: Chemical Composition and Antimicrobial Activity of Essential Oil of Piper angustifolium; Planta medica 62, 372-3 (1996)

>  <mol_id> (121)
212

>  <LD50-mouse-oral> (121)
1310

>  <LD50-mou-ip> (121)
884

>  <MolWeight> (121)
152.23

>  <Nickname> (121)
d,l-Camphor

>  <other Names> (121)
2-Camphanone, Caladryl, Bornan-2-one

$$$$

csChmFindW11180110282D

 27 28  0  0  0  0  0  0  0  0999 V2000
    2.9004    4.4099   -0.5349 C   0  0  0  0  0  0  0  0  0  0  0  0
    1.2040    3.8269   -1.5240 C   0  0  0  0  0  0  0  0  0  0  0  0
    4.4291    3.8959   -1.8253 C   0  0  0  0  0  0  0  0  0  0  0  0
    2.9248    6.2933    0.1026 C   0  0  0  0  0  0  0  0  0  0  0  0
    3.0330    2.9058    0.9152 C   0  0  0  0  0  0  0  0  0  0  0  0
    1.1940    1.7981   -1.4816 C   0  0  0  0  0  0  0  0  0  0  0  0
    0.0896    4.7933   -2.2265 O   0  0  0  0  0  0  0  0  0  0  0  0
    4.4617    1.8463   -1.7738 C   0  0  0  0  0  0  0  0  0  0  0  0
    2.9371    1.3619   -0.4857 C   0  0  0  0  0  0  0  0  0  0  0  0
    4.7447    2.9332    1.9749 C   0  0  0  0  0  0  0  0  0  0  0  0
    1.4828    2.9054    2.2060 C   0  0  0  0  0  0  0  0  0  0  0  0
    5.7151    4.4764   -1.3561 H   0  0  0  0  0  0  0  0  0  0  0  0
    4.1612    4.4086   -3.1954 H   0  0  0  0  0  0  0  0  0  0  0  0
    4.2524    6.6260    0.6890 H   0  0  0  0  0  0  0  0  0  0  0  0
    1.8798    6.4980    1.1443 H   0  0  0  0  0  0  0  0  0  0  0  0
    2.6491    7.2209   -1.0298 H   0  0  0  0  0  0  0  0  0  0  0  0
    1.1746    1.2371   -2.8591 H   0  0  0  0  0  0  0  0  0  0  0  0
    0.0000    1.2924   -0.7517 H   0  0  0  0  0  0  0  0  0  0  0  0
    5.7654    1.3361   -1.2720 H   0  0  0  0  0  0  0  0  0  0  0  0
    4.2330    1.2640   -3.1234 H   0  0  0  0  0  0  0  0  0  0  0  0
    3.0029    0.0000    0.0721 H   0  0  0  0  0  0  0  0  0  0  0  0
    4.7866    1.7584    2.8891 H   0  0  0  0  0  0  0  0  0  0  0  0
    4.8101    4.1760    2.7941 H   0  0  0  0  0  0  0  0  0  0  0  0
    5.9492    2.8912    1.1054 H   0  0  0  0  0  0  0  0  0  0  0  0
    1.3865    1.5805    2.8774 H   0  0  0  0  0  0  0  0  0  0  0  0
    0.1896    3.1864    1.5257 H   0  0  0  0  0  0  0  0  0  0  0  0
    1.6844    3.9511    3.2476 H   0  0  0  0  0  0  0  0  0  0  0  0
  1  2  1  6  0  0  0
  1  3  1  6  0  0  0
  1  4  1  0  0  0  0
  1  5  1  1  0  0  0
  2  6  1  0  0  0  0
  2  7  2  0  0  0  0
  3  8  1  0  0  0  0
  3 12  1  0  0  0  0
  3 13  1  6  0  0  0
  4 14  1  0  0  0  0
  4 15  1  1  0  0  0
  4 16  1  6  0  0  0
  5  9  1  6  0  0  0
  5 10  1  1  0  0  0
  5 11  1  1  0  0  0
  6  9  1  1  0  0  0
  6 17  1  6  0  0  0
  6 18  1  1  0  0  0
  8  9  1  1  0  0  0
  8 19  1  0  0  0  0
  8 20  1  6  0  0  0
  9 21  1  0  0  0  0
 10 22  1  1  0  0  0
 10 23  1  1  0  0  0
 10 24  1  6  0  0  0
 11 25  1  1  0  0  0
 11 26  1  6  0  0  0
 11 27  1  1  0  0  0
M  END
>  <Formula> (122)
C10H16O

>  <Name> (122)
1,7,7-TRIMETHYLBICYCLO[2.2.1]HEPTAN-2-ONE

>  <CAS-Nr> (122)
21368-68-3

>  <EINECS> (122)
200-945-0, 244-350-4

>  <21 CFR> (122)
172.515 (D-Camphor), 175.105

>  <LD50-rat-oral> (122)
3000

>  <Compound classification> (122)
Monoterpene

>  <Microorganism> (122)
Trichophyton mentagrophytes

>  <Microorganism type> (122)
ATCC 9972

>  <Microorganism classification> (122)
fungi

>  <NIC> (122)
200

>  <Method abbreviation> (122)
SDT

>  <Ref-Nr> (122)
5122

>  <Marker> (122)
0

>  <Method> (122)
Serial dilution test; Inoculum size: 300000 viable organisms; Medium: Tryptone-yeast-glucose broth; pH: 7.0; Incubation-temperature: 37 degrees Centigrade; Incubation-time: 18-24h; Solubility enhancer: ethanol; Agar diffusion test; Medium: Tryptone-yeast-glucose agar, pH = 5.5; Compound application: 20 microliter of 10% ethanolic stock solution on 9.5 mm disk, Incubation-temperature: 37 degrees Centigrade; Incubation-time: 18-24h (Method of Morris et al. J. Am. Oil Chem. 59, 595-603 (1979)

>  <Reference> (122)
Tirillini, B., Velasques, E.R., Pellegrino, R.: Chemical Composition and Antimicrobial Activity of Essential Oil of Piper angustifolium; Planta medica 62, 372-3 (1996)

>  <mol_id> (122)
212

>  <LD50-mouse-oral> (122)
1310

>  <LD50-mou-ip> (122)
884

>  <MolWeight> (122)
152.23

>  <Nickname> (122)
d,l-Camphor

>  <other Names> (122)
2-Camphanone, Caladryl, Bornan-2-one

$$$$

csChmFindW11180110282D

 24 24  0  0  0  0  0  0  0  0999 V2000
    7.9403    5.4393    1.2459 C   0  0  0  0  0  0  0  0  0  0  0  0
    7.0715    3.9032    1.1169 C   0  0  0  0  0  0  0  0  0  0  0  0
    7.0436    6.9418    1.2706 C   0  0  0  0  0  0  0  0  0  0  0  0
    9.6533    5.5396    1.3495 O   0  0  0  0  0  0  0  0  0  0  0  0
    5.3313    3.8844    1.0176 C   0  0  0  0  0  0  0  0  0  0  0  0
    8.0859    2.4972    1.0977 O   0  0  0  0  0  0  0  0  0  0  0  0
    5.3043    6.9088    1.1697 C   0  0  0  0  0  0  0  0  0  0  0  0
    4.4421    5.3943    1.0446 C   0  0  0  0  0  0  0  0  0  0  0  0
    7.2456    0.9312    1.0245 C   0  0  0  0  0  0  0  0  0  0  0  0
    2.5800    5.3709    0.9558 C   0  0  0  0  0  0  0  0  0  0  0  0
    1.9625    4.8221   -0.7096 C   0  0  0  0  0  0  0  0  0  0  0  0
    0.6867    5.5375   -1.5034 C   0  0  0  0  0  0  0  0  0  0  0  0
    7.7279    8.1301    1.3693 H   0  0  0  0  0  0  0  0  0  0  0  0
   10.0991    4.4125    1.3189 H   0  0  0  0  0  0  0  0  0  0  0  0
    4.6447    2.6976    0.9179 H   0  0  0  0  0  0  0  0  0  0  0  0
    4.6074    8.0955    1.1881 H   0  0  0  0  0  0  0  0  0  0  0  0
    8.2910    0.0000    1.0470 H   0  0  0  0  0  0  0  0  0  0  0  0
    6.5127    0.8222   -0.1601 H   0  0  0  0  0  0  0  0  0  0  0  0
    6.4124    0.7665    2.1338 H   0  0  0  0  0  0  0  0  0  0  0  0
    2.0705    6.6423    1.2716 H   0  0  0  0  0  0  0  0  0  0  0  0
    2.0879    4.4776    1.9283 H   0  0  0  0  0  0  0  0  0  0  0  0
    2.6384    3.7511   -1.2561 H   0  0  0  0  0  0  0  0  0  0  0  0
    0.2434    5.0923   -2.7240 H   0  0  0  0  0  0  0  0  0  0  0  0
    0.0000    6.6121   -0.9949 H   0  0  0  0  0  0  0  0  0  0  0  0
  1  2  2  0  0  0  0
  1  3  1  0  0  0  0
  1  4  1  0  0  0  0
  2  5  1  0  0  0  0
  2  6  1  0  0  0  0
  3  7  2  0  0  0  0
  3 13  1  0  0  0  0
  4 14  1  0  0  0  0
  5  8  2  0  0  0  0
  5 15  1  0  0  0  0
  6  9  1  0  0  0  0
  7  8  1  0  0  0  0
  7 16  1  0  0  0  0
  8 10  1  0  0  0  0
  9 17  1  0  0  0  0
  9 18  1  6  0  0  0
  9 19  1  1  0  0  0
 10 11  1  6  0  0  0
 10 20  1  0  0  0  0
 10 21  1  1  0  0  0
 11 12  2  0  0  0  0
 11 22  1  0  0  0  0
 12 23  1  6  0  0  0
 12 24  1  0  0  0  0
M  END
>  <Formula> (123)
C10H12O2

>  <Name> (123)
2-METHOXY-4-(2-PROPENYL)-PHENOL

>  <CAS-Nr> (123)
97-53-0

>  <EINECS> (123)
202-589-1

>  <21 CFR> (123)
184.1257, 175.105, 177.2800, 582.60

>  <LD50-rat-oral> (123)
1930

>  <Compound classification> (123)
Phenylpropane

>  <Microorganism> (123)
Streptococcus sp.

>  <Microorganism classification> (123)
Bac+

>  <Inhibition zone> (123)
17

>  <ADT evaluation> (123)
3

>  <Annotation> (123)
named as 'oleo de cravo'

>  <Method abbreviation> (123)
ADT

>  <Ref-Nr> (123)
5445

>  <Marker> (123)
0

>  <Method> (123)
Agar diffusion test; Medium: agar; Inoculum size: adjusted; disk diameter: 6 mm; Incubation temperature: 37 degrees Centigrade; Incubation time: 24h; compound dose: moistened disk

>  <Reference> (123)
De Morais, S.M., Fernandes Filho, E.S., De Abreus Matos, F.J., Lacerda Machao, M.I., Braga Soares, J., Silva de Andrade, A.P.: Essential Oils of Brazilian Plants: Chemical Study, Bactericidal Activity and Possible Utilization in Dental Cements; Revista brasileira de farmacia 77, 42-44 (1996)

>  <mol_id> (123)
118

>  <LD50-mouse-oral> (123)
3000

>  <LD50-mou-ip> (123)
500

>  <MolWeight> (123)
164.20

>  <Nickname> (123)
Eugenol

>  <other Names> (123)
3-Methoxy-4-hydroxy-allylbenzene, Allylguaiacol, Eugenic acid, Caryophyllic acid

>  <LD50-mou-iv> (123)
72

$$$$

csChmFindW11180110282D

 31 31  0  0  0  0  0  0  0  0999 V2000
    3.0800    4.0917   -0.1470 C   0  0  0  0  0  0  0  0  0  0  0  0
    4.6269    5.2006   -0.8321 C   0  0  0  0  0  0  0  0  0  0  0  0
    1.3516    5.1500   -0.3299 C   0  0  0  0  0  0  0  0  0  0  0  0
    4.5943    7.0219    0.0473 C   0  0  0  0  0  0  0  0  0  0  0  0
    1.3366    6.6984    0.7163 C   0  0  0  0  0  0  0  0  0  0  0  0
    2.7903    7.9619    0.0013 C   0  0  0  0  0  0  0  0  0  0  0  0
    2.9430    2.3741   -1.2292 C   0  0  0  0  0  0  0  0  0  0  0  0
    6.2336    4.3355   -0.3088 O   0  0  0  0  0  0  0  0  0  0  0  0
    1.3870    1.2586   -0.5401 C   0  0  0  0  0  0  0  0  0  0  0  0
    4.6714    1.3158   -1.0464 C   0  0  0  0  0  0  0  0  0  0  0  0
    2.8659    9.6342    1.1580 C   0  0  0  0  0  0  0  0  0  0  0  0
    3.3066    3.7601    1.2848 H   0  0  0  0  0  0  0  0  0  0  0  0
    4.5047    5.3611   -2.3025 H   0  0  0  0  0  0  0  0  0  0  0  0
    0.1797    4.2893    0.0265 H   0  0  0  0  0  0  0  0  0  0  0  0
    1.2022    5.5281   -1.7757 H   0  0  0  0  0  0  0  0  0  0  0  0
    5.6207    7.8977   -0.6065 H   0  0  0  0  0  0  0  0  0  0  0  0
    5.0037    6.8431    1.4789 H   0  0  0  0  0  0  0  0  0  0  0  0
    1.6584    6.3402    2.1368 H   0  0  0  0  0  0  0  0  0  0  0  0
    0.0000    7.3644    0.5982 H   0  0  0  0  0  0  0  0  0  0  0  0
    2.4679    8.3431   -1.3993 H   0  0  0  0  0  0  0  0  0  0  0  0
    2.7147    2.7091   -2.6602 H   0  0  0  0  0  0  0  0  0  0  0  0
    7.1843    5.0371   -0.7417 H   0  0  0  0  0  0  0  0  0  0  0  0
    1.2769    0.0000   -1.3241 H   0  0  0  0  0  0  0  0  0  0  0  0
    0.1174    2.0222   -0.6691 H   0  0  0  0  0  0  0  0  0  0  0  0
    1.5993    0.9200    0.8922 H   0  0  0  0  0  0  0  0  0  0  0  0
    4.5831    0.0575   -1.8338 H   0  0  0  0  0  0  0  0  0  0  0  0
    4.9118    0.9775    0.3816 H   0  0  0  0  0  0  0  0  0  0  0  0
    5.8164    2.1213   -1.5477 H   0  0  0  0  0  0  0  0  0  0  0  0
    1.5523   10.3302    1.1321 H   0  0  0  0  0  0  0  0  0  0  0  0
    3.9134   10.5582    0.6480 H   0  0  0  0  0  0  0  0  0  0  0  0
    3.1919    9.2673    2.5616 H   0  0  0  0  0  0  0  0  0  0  0  0
  1  2  1  0  0  0  0
  1  3  1  0  0  0  0
  1  7  1  6  0  0  0
  1 12  1  1  0  0  0
  2  4  1  0  0  0  0
  2  8  1  0  0  0  0
  2 13  1  6  0  0  0
  3  5  1  1  0  0  0
  3 14  1  0  0  0  0
  3 15  1  6  0  0  0
  4  6  1  0  0  0  0
  4 16  1  0  0  0  0
  4 17  1  1  0  0  0
  5  6  1  0  0  0  0
  5 18  1  1  0  0  0
  5 19  1  0  0  0  0
  6 11  1  1  0  0  0
  6 20  1  6  0  0  0
  7  9  1  0  0  0  0
  7 10  1  0  0  0  0
  7 21  1  6  0  0  0
  8 22  1  0  0  0  0
  9 23  1  6  0  0  0
  9 24  1  0  0  0  0
  9 25  1  1  0  0  0
 10 26  1  6  0  0  0
 10 27  1  1  0  0  0
 10 28  1  0  0  0  0
 11 29  1  0  0  0  0
 11 30  1  0  0  0  0
 11 31  1  1  0  0  0
M  END
>  <Formula> (124)
C10H20O

>  <Name> (124)
(1R-1ALPHA,2BETA,5ALPHA)-5-METHYL-2-(1-METHYLETHYL)-CYCLOHEXANOL

>  <CAS-Nr> (124)
2216-51-5

>  <EINECS> (124)
218-690-9

>  <21 CFR> (124)
172.515, 182.20 (Menthol)

>  <LD50-rat-oral> (124)
3300

>  <Compound classification> (124)
Monoterpene

>  <Microorganism> (124)
Rhizopus stolonifer

>  <Microorganism classification> (124)
fungi

>  <MIC> (124)
100

>  <Annotation> (124)
growth after 15h

>  <Method abbreviation> (124)
ADlT

>  <Ref-Nr> (124)
5699

>  <Marker> (124)
0

>  <Method> (124)
Agar dilution test; Inoculum size: 5x10E5 spores/ml; Medium: Czapek-Dox agar (A.niger), SMB (R. stolonifer); pH: 6.2-6.4; Incubation-temperature: 28 degrees Centigrade; Incubation-time: up to 168h, the time for visible growth was measured at 100 microgram/ml; Solubility enhancer: ethanol

>  <Reference> (124)
Moleyar, V., Narasimham, P.: Effect of Agar on the Inhibitory Activity of Antifungal Compounds Citral and Menthol; Indian Journal of Experimental Biology 25, 874-5 (1987)

>  <mol_id> (124)
710

>  <LD50-mouse-oral> (124)
3400

>  <LD50-mou-ip> (124)
6600

>  <MolWeight> (124)
156.26

>  <Nickname> (124)
l-Menthol

>  <other Names> (124)
(-)-Menthol, U.S.P. Menthol, Levomenthol

$$$$

csChmFindW11180110282D

 16 15  0  0  0  0  0  0  0  0999 V2000
    6.1027    3.0562    0.0279 C   0  0  0  0  0  0  0  0  0  0  0  0
    4.5092    2.1912    0.0271 C   0  0  0  0  0  0  0  0  0  0  0  0
    7.5772    2.2467    0.0190 C   0  0  0  0  0  0  0  0  0  0  0  0
    3.0341    3.0022    0.0360 C   0  0  0  0  0  0  0  0  0  0  0  0
    9.2077    3.1183    0.0168 C   0  0  0  0  0  0  0  0  0  0  0  0
    1.4142    2.1499    0.0353 C   0  0  0  0  0  0  0  0  0  0  0  0
    0.0000    2.7838    0.0460 O   0  0  0  0  0  0  0  0  0  0  0  0
    1.4690    0.4367    0.0213 O   0  0  0  0  0  0  0  0  0  0  0  0
    6.0552    4.4386    0.0365 H   0  0  0  0  0  0  0  0  0  0  0  0
    4.5470    0.8050    0.0185 H   0  0  0  0  0  0  0  0  0  0  0  0
    7.6265    0.8648    0.0105 H   0  0  0  0  0  0  0  0  0  0  0  0
    2.9370    4.3803    0.0447 H   0  0  0  0  0  0  0  0  0  0  0  0
   10.2671    2.2031    0.0397 H   0  0  0  0  0  0  0  0  0  0  0  0
    9.3236    3.9541    1.1372 H   0  0  0  0  0  0  0  0  0  0  0  0
    9.3389    3.9139   -1.1311 H   0  0  0  0  0  0  0  0  0  0  0  0
    0.3331    0.0000    0.0221 H   0  0  0  0  0  0  0  0  0  0  0  0
  1  2  1  0  0  0  0
  1  3  2  0  0  0  0
  1  9  1  0  0  0  0
  2  4  2  0  0  0  0
  2 10  1  0  0  0  0
  3  5  1  0  0  0  0
  3 11  1  0  0  0  0
  4  6  1  0  0  0  0
  4 12  1  0  0  0  0
  5 13  1  0  0  0  0
  5 14  1  1  0  0  0
  5 15  1  6  0  0  0
  6  7  2  0  0  0  0
  6  8  1  0  0  0  0
  8 16  1  0  0  0  0
M  END
>  <Formula> (125)
C6H8O2

>  <Name> (125)
(E,E)-2,4-HEXADIENOIC ACID

>  <CAS-Nr> (125)
110-44-1

>  <EINECS> (125)
203-768-7

>  <21 CFR> (125)
133.118, 150.161, 182.3089, 150.141, 166.110, 177.2260, 133.123, 133.124, 133.169, 133.173, 133.179, 133.187, 133.188, 172.872, 181.23

>  <LD50-rat-oral> (125)
7360

>  <Compound classification> (125)
Ali-COOH

>  <Microorganism> (125)
Aspergillus niger

>  <Microorganism classification> (125)
fungi

>  <NIC> (125)
250

>  <Annotation> (125)
at pH=5.5

>  <Method abbreviation> (125)
AdlT

>  <Ref-Nr> (125)
5701

>  <Marker> (125)
0

>  <Method> (125)
Agar dilution test; Inoculum size: 0.1 ml spore suspension; Medium: potato dextrose agar; pH: 5.5; Incubation-temperature: 25 degrees Centigrade; Incubation-time: 30d; Solubility enhancer: Tween 80, ethanol

>  <Reference> (125)
Akguel, A., Kivanic, M.: Inhibitory Effects of Selected Turkish Spices and Oregano Components on some Foodborne Fungi; International Journal of Food Microbiology 6, 263-8 (1988)

>  <mol_id> (125)
203

>  <LD50-mouse-oral> (125)
3200

>  <LD50-mou-ip> (125)
2820

>  <MolWeight> (125)
112.12

>  <Nickname> (125)
Sorbic acid

$$$$

csChmFindW11180110282D

 16 15  0  0  0  0  0  0  0  0999 V2000
    6.1027    3.0562    0.0279 C   0  0  0  0  0  0  0  0  0  0  0  0
    4.5092    2.1912    0.0271 C   0  0  0  0  0  0  0  0  0  0  0  0
    7.5772    2.2467    0.0190 C   0  0  0  0  0  0  0  0  0  0  0  0
    3.0341    3.0022    0.0360 C   0  0  0  0  0  0  0  0  0  0  0  0
    9.2077    3.1183    0.0168 C   0  0  0  0  0  0  0  0  0  0  0  0
    1.4142    2.1499    0.0353 C   0  0  0  0  0  0  0  0  0  0  0  0
    0.0000    2.7838    0.0460 O   0  0  0  0  0  0  0  0  0  0  0  0
    1.4690    0.4367    0.0213 O   0  0  0  0  0  0  0  0  0  0  0  0
    6.0552    4.4386    0.0365 H   0  0  0  0  0  0  0  0  0  0  0  0
    4.5470    0.8050    0.0185 H   0  0  0  0  0  0  0  0  0  0  0  0
    7.6265    0.8648    0.0105 H   0  0  0  0  0  0  0  0  0  0  0  0
    2.9370    4.3803    0.0447 H   0  0  0  0  0  0  0  0  0  0  0  0
   10.2671    2.2031    0.0397 H   0  0  0  0  0  0  0  0  0  0  0  0
    9.3236    3.9541    1.1372 H   0  0  0  0  0  0  0  0  0  0  0  0
    9.3389    3.9139   -1.1311 H   0  0  0  0  0  0  0  0  0  0  0  0
    0.3331    0.0000    0.0221 H   0  0  0  0  0  0  0  0  0  0  0  0
  1  2  1  0  0  0  0
  1  3  2  0  0  0  0
  1  9  1  0  0  0  0
  2  4  2  0  0  0  0
  2 10  1  0  0  0  0
  3  5  1  0  0  0  0
  3 11  1  0  0  0  0
  4  6  1  0  0  0  0
  4 12  1  0  0  0  0
  5 13  1  0  0  0  0
  5 14  1  1  0  0  0
  5 15  1  6  0  0  0
  6  7  2  0  0  0  0
  6  8  1  0  0  0  0
  8 16  1  0  0  0  0
M  END
>  <Formula> (126)
C6H8O2

>  <Name> (126)
(E,E)-2,4-HEXADIENOIC ACID

>  <CAS-Nr> (126)
110-44-1

>  <EINECS> (126)
203-768-7

>  <21 CFR> (126)
133.118, 150.161, 182.3089, 150.141, 166.110, 177.2260, 133.123, 133.124, 133.169, 133.173, 133.179, 133.187, 133.188, 172.872, 181.23

>  <LD50-rat-oral> (126)
7360

>  <Compound classification> (126)
Ali-COOH

>  <Microorganism> (126)
Aspergillus niger

>  <Microorganism classification> (126)
fungi

>  <MIC> (126)
250

>  <Annotation> (126)
at pH=3.5

>  <Method abbreviation> (126)
AdlT

>  <Ref-Nr> (126)
5701

>  <Marker> (126)
0

>  <Method> (126)
Agar dilution test; Inoculum size: 0.1 ml spore suspension; Medium: potato dextrose agar; pH: 5.5; Incubation-temperature: 25 degrees Centigrade; Incubation-time: 30d; Solubility enhancer: Tween 80, ethanol

>  <Reference> (126)
Akguel, A., Kivanic, M.: Inhibitory Effects of Selected Turkish Spices and Oregano Components on some Foodborne Fungi; International Journal of Food Microbiology 6, 263-8 (1988)

>  <mol_id> (126)
203

>  <LD50-mouse-oral> (126)
3200

>  <LD50-mou-ip> (126)
2820

>  <MolWeight> (126)
112.12

>  <Nickname> (126)
Sorbic acid

$$$$

csChmFindW11180110282D

 14 14  0  0  0  0  0  0  0  0999 V2000
    4.2729    0.9591    0.0005 C   0  0  0  0  0  0  0  0  0  0  0  0
    2.8729    0.9629    0.0006 C   0  0  0  0  0  0  0  0  0  0  0  0
    4.9789    2.1717    0.0000 C   0  0  0  0  0  0  0  0  0  0  0  0
    2.1710    2.1833    0.0002 C   0  0  0  0  0  0  0  0  0  0  0  0
    4.2845    3.3897   -0.0004 C   0  0  0  0  0  0  0  0  0  0  0  0
    2.8836    3.3971   -0.0005 C   0  0  0  0  0  0  0  0  0  0  0  0
    0.6921    2.1791    0.0000 C   0  0  0  0  0  0  0  0  0  0  0  0
    0.0000    3.2071   -0.0003 O   0  0  0  0  0  0  0  0  0  0  0  0
    4.8224    0.0000    0.0009 H   0  0  0  0  0  0  0  0  0  0  0  0
    2.3178    0.0057    0.0011 H   0  0  0  0  0  0  0  0  0  0  0  0
    6.0848    2.1663    0.0000 H   0  0  0  0  0  0  0  0  0  0  0  0
    4.8421    4.3443   -0.0009 H   0  0  0  0  0  0  0  0  0  0  0  0
    2.3223    4.3522   -0.0008 H   0  0  0  0  0  0  0  0  0  0  0  0
    0.2224    1.1623    0.0005 H   0  0  0  0  0  0  0  0  0  0  0  0
  1  2  2  0  0  0  0
  1  3  1  0  0  0  0
  1  9  1  0  0  0  0
  2  4  1  0  0  0  0
  2 10  1  0  0  0  0
  3  5  2  0  0  0  0
  3 11  1  0  0  0  0
  4  6  2  0  0  0  0
  4  7  1  0  0  0  0
  5  6  1  0  0  0  0
  5 12  1  0  0  0  0
  6 13  1  0  0  0  0
  7  8  2  0  0  0  0
  7 14  1  0  0  0  0
M  END
>  <Formula> (127)
C7H6O

>  <Name> (127)
BENZALDEHYDE

>  <CAS-Nr> (127)
100-52-7

>  <EINECS> (127)
202-860-4

>  <21 CFR> (127)
182.60, 582.60

>  <LD50-rat-oral> (127)
1300

>  <Compound classification> (127)
Ar-CHO

>  <Microorganism> (127)
Candida albicans

>  <Microorganism type> (127)
ATCC 10708

>  <Microorganism classification> (127)
yeast

>  <NIC> (127)
1000

>  <Method abbreviation> (127)
SDT

>  <Ref-Nr> (127)
5762

>  <Marker> (127)
0

>  <Method> (127)
Serial dilution test; Inoculum size: adjusted by optical density; Medium: bacteria in Nutrient broth + yeast-extract + glucose, S.mutans in brain heart infusion, fungi in malt broth, Actinomyces in Actinomyces broth; Incubation-temperature: 30-37 degrees Centigrade; Incubation-time: 48h; Solubility enhancer: N,N-dimethylformamid 1%

>  <Reference> (127)
Kang, R., Helms, R., Stout, M.J., Jaber, H., Chen, Z., Nakatsu, T.: Antimicrobial Activity of the Volatile Constituents of Perilla frutescens and its Synergistic Effects with Polygodial; Journal of Agricultural Food Chemistry 40, 2328-30 (1992)

>  <mol_id> (127)
155

>  <LD50-mouse-oral> (127)
28

>  <LD50-mou-ip> (127)
9

>  <MolWeight> (127)
106.12

>  <Nickname> (127)
Benzoic aldehyde

>  <other Names> (127)
artificial essential oil of almond

$$$$

csChmFindW11180110282D

 42 42  0  0  0  0  0  0  0  0999 V2000
    8.5061   11.9623   -2.1145 C   0  0  0  0  0  0  0  0  0  0  0  0
    8.5312   10.0233   -1.6302 C   0  0  0  0  0  0  0  0  0  0  0  0
    7.1584   13.0924   -1.6893 C   0  0  0  0  0  0  0  0  0  0  0  0
    6.6826    9.3318   -1.0538 C   0  0  0  0  0  0  0  0  0  0  0  0
    5.5219   12.4737   -0.6996 C   0  0  0  0  0  0  0  0  0  0  0  0
    7.1804   15.0282   -2.1860 C   0  0  0  0  0  0  0  0  0  0  0  0
    5.8061   10.6721    0.2284 C   0  0  0  0  0  0  0  0  0  0  0  0
    6.8029    7.4195   -0.2330 C   0  0  0  0  0  0  0  0  0  0  0  0
    4.9492    6.5026   -0.3726 C   0  0  0  0  0  0  0  0  0  0  0  0
    7.4727    7.4510    1.7099 C   0  0  0  0  0  0  0  0  0  0  0  0
    8.0715    6.4743   -1.3394 O   0  0  0  0  0  0  0  0  0  0  0  0
    4.8440    4.7039    0.5901 C   0  0  0  0  0  0  0  0  0  0  0  0
    3.0889    3.7964    0.2833 C   0  0  0  0  0  0  0  0  0  0  0  0
    2.6080    2.2551    1.1052 C   0  0  0  0  0  0  0  0  0  0  0  0
    0.8415    1.3831    0.7597 C   0  0  0  0  0  0  0  0  0  0  0  0
    3.8034    1.3257    2.4120 C   0  0  0  0  0  0  0  0  0  0  0  0
    9.7027   12.4434   -2.8537 H   0  0  0  0  0  0  0  0  0  0  0  0
    9.5306    9.8092   -0.5099 H   0  0  0  0  0  0  0  0  0  0  0  0
    9.0147    9.2033   -2.8102 H   0  0  0  0  0  0  0  0  0  0  0  0
    5.8192    9.2266   -2.3010 H   0  0  0  0  0  0  0  0  0  0  0  0
    4.3742   12.3654   -1.6851 H   0  0  0  0  0  0  0  0  0  0  0  0
    5.1289   13.5102    0.3327 H   0  0  0  0  0  0  0  0  0  0  0  0
    5.9236   15.3861   -2.9410 H   0  0  0  0  0  0  0  0  0  0  0  0
    8.3685   15.3651   -3.0505 H   0  0  0  0  0  0  0  0  0  0  0  0
    7.2402   15.8816   -0.9423 H   0  0  0  0  0  0  0  0  0  0  0  0
    6.6916   10.8682    1.4400 H   0  0  0  0  0  0  0  0  0  0  0  0
    4.4763   10.1435    0.7153 H   0  0  0  0  0  0  0  0  0  0  0  0
    4.6388    6.3026   -1.8413 H   0  0  0  0  0  0  0  0  0  0  0  0
    3.9011    7.4308    0.1979 H   0  0  0  0  0  0  0  0  0  0  0  0
    7.8542    6.0618    2.1523 H   0  0  0  0  0  0  0  0  0  0  0  0
    6.3952    7.9723    2.6223 H   0  0  0  0  0  0  0  0  0  0  0  0
    8.6877    8.3324    1.8293 H   0  0  0  0  0  0  0  0  0  0  0  0
    8.1419    5.2596   -0.8804 H   0  0  0  0  0  0  0  0  0  0  0  0
    5.0506    4.9048    2.0807 H   0  0  0  0  0  0  0  0  0  0  0  0
    5.9617    3.7941    0.1132 H   0  0  0  0  0  0  0  0  0  0  0  0
    2.1693    4.4577   -0.6797 H   0  0  0  0  0  0  0  0  0  0  0  0
    1.0505    0.0085    0.1717 H   0  0  0  0  0  0  0  0  0  0  0  0
    0.0000    2.1874   -0.1980 H   0  0  0  0  0  0  0  0  0  0  0  0
    0.0785    1.2299    2.0529 H   0  0  0  0  0  0  0  0  0  0  0  0
    3.2263    0.0000    2.8375 H   0  0  0  0  0  0  0  0  0  0  0  0
    3.9941    2.1798    3.6430 H   0  0  0  0  0  0  0  0  0  0  0  0
    5.1631    1.0814    1.8024 H   0  0  0  0  0  0  0  0  0  0  0  0
  1  2  1  0  0  0  0
  1  3  2  0  0  0  0
  1 17  1  6  0  0  0
  2  4  1  0  0  0  0
  2 18  1  1  0  0  0
  2 19  1  6  0  0  0
  3  5  1  1  0  0  0
  3  6  1  0  0  0  0
  4  7  1  1  0  0  0
  4  8  1  0  0  0  0
  4 20  1  6  0  0  0
  5  7  1  1  0  0  0
  5 21  1  6  0  0  0
  5 22  1  1  0  0  0
  6 23  1  6  0  0  0
  6 24  1  6  0  0  0
  6 25  1  1  0  0  0
  7 26  1  1  0  0  0
  7 27  1  0  0  0  0
  8  9  1  0  0  0  0
  8 10  1  1  0  0  0
  8 11  1  6  0  0  0
  9 12  1  1  0  0  0
  9 28  1  6  0  0  0
  9 29  1  0  0  0  0
 10 30  1  0  0  0  0
 10 31  1  1  0  0  0
 10 32  1  0  0  0  0
 11 33  1  0  0  0  0
 12 13  1  0  0  0  0
 12 34  1  1  0  0  0
 12 35  1  0  0  0  0
 13 14  2  0  0  0  0
 13 36  1  6  0  0  0
 14 15  1  0  0  0  0
 14 16  1  1  0  0  0
 15 37  1  0  0  0  0
 15 38  1  6  0  0  0
 15 39  1  1  0  0  0
 16 40  1  0  0  0  0
 16 41  1  1  0  0  0
 16 42  1  0  0  0  0
M  END
>  <Formula> (128)
C15H26O

>  <Name> (128)
(R*,R*)-ALPHA,4-DIMETHYL-ALPHA-(4-METHYL-3-PENTENYL)-3-CYCLOHEXENE-1-METHANOL

>  <CAS-Nr> (128)
515-69-5

>  <EINECS> (128)
208-205-9

>  <LD50-rat-oral> (128)
14850

>  <Compound classification> (128)
Sesquiterpene

>  <Microorganism> (128)
Bacillus subtilis

>  <Microorganism type> (128)
231

>  <Microorganism classification> (128)
Bac+

>  <MIC> (128)
32

>  <Method abbreviation> (128)
SDT

>  <Ref-Nr> (128)
5901

>  <Marker> (128)
0

>  <Method> (128)
Serial dilution test: details not given

>  <Reference> (128)
Korzybsky, T., Kowszyk-Gindifer, Z., Kurylowicz, W.: Antibiotics; PWN - Polish Scientific Publishers, Warzawa (1967)

>  <mol_id> (128)
180

>  <LD50-mouse-oral> (128)
11350

>  <MolWeight> (128)
222.36

>  <Nickname> (128)
alpha-Bisabolol

>  <other Names> (128)
Dragosantol, (-)-alpha-Bisabolol

$$$$

csChmFindW11180110282D

 27 28  0  0  0  0  0  0  0  0999 V2000
    2.9004    4.4099   -0.5349 C   0  0  0  0  0  0  0  0  0  0  0  0
    1.2040    3.8269   -1.5240 C   0  0  0  0  0  0  0  0  0  0  0  0
    4.4291    3.8959   -1.8253 C   0  0  0  0  0  0  0  0  0  0  0  0
    2.9248    6.2933    0.1026 C   0  0  0  0  0  0  0  0  0  0  0  0
    3.0330    2.9058    0.9152 C   0  0  0  0  0  0  0  0  0  0  0  0
    1.1940    1.7981   -1.4816 C   0  0  0  0  0  0  0  0  0  0  0  0
    0.0896    4.7933   -2.2265 O   0  0  0  0  0  0  0  0  0  0  0  0
    4.4617    1.8463   -1.7738 C   0  0  0  0  0  0  0  0  0  0  0  0
    2.9371    1.3619   -0.4857 C   0  0  0  0  0  0  0  0  0  0  0  0
    4.7447    2.9332    1.9749 C   0  0  0  0  0  0  0  0  0  0  0  0
    1.4828    2.9054    2.2060 C   0  0  0  0  0  0  0  0  0  0  0  0
    5.7151    4.4764   -1.3561 H   0  0  0  0  0  0  0  0  0  0  0  0
    4.1612    4.4086   -3.1954 H   0  0  0  0  0  0  0  0  0  0  0  0
    4.2524    6.6260    0.6890 H   0  0  0  0  0  0  0  0  0  0  0  0
    1.8798    6.4980    1.1443 H   0  0  0  0  0  0  0  0  0  0  0  0
    2.6491    7.2209   -1.0298 H   0  0  0  0  0  0  0  0  0  0  0  0
    1.1746    1.2371   -2.8591 H   0  0  0  0  0  0  0  0  0  0  0  0
    0.0000    1.2924   -0.7517 H   0  0  0  0  0  0  0  0  0  0  0  0
    5.7654    1.3361   -1.2720 H   0  0  0  0  0  0  0  0  0  0  0  0
    4.2330    1.2640   -3.1234 H   0  0  0  0  0  0  0  0  0  0  0  0
    3.0029    0.0000    0.0721 H   0  0  0  0  0  0  0  0  0  0  0  0
    4.7866    1.7584    2.8891 H   0  0  0  0  0  0  0  0  0  0  0  0
    4.8101    4.1760    2.7941 H   0  0  0  0  0  0  0  0  0  0  0  0
    5.9492    2.8912    1.1054 H   0  0  0  0  0  0  0  0  0  0  0  0
    1.3865    1.5805    2.8774 H   0  0  0  0  0  0  0  0  0  0  0  0
    0.1896    3.1864    1.5257 H   0  0  0  0  0  0  0  0  0  0  0  0
    1.6844    3.9511    3.2476 H   0  0  0  0  0  0  0  0  0  0  0  0
  1  2  1  6  0  0  0
  1  3  1  6  0  0  0
  1  4  1  0  0  0  0
  1  5  1  1  0  0  0
  2  6  1  0  0  0  0
  2  7  2  0  0  0  0
  3  8  1  0  0  0  0
  3 12  1  0  0  0  0
  3 13  1  6  0  0  0
  4 14  1  0  0  0  0
  4 15  1  1  0  0  0
  4 16  1  6  0  0  0
  5  9  1  6  0  0  0
  5 10  1  1  0  0  0
  5 11  1  1  0  0  0
  6  9  1  1  0  0  0
  6 17  1  6  0  0  0
  6 18  1  1  0  0  0
  8  9  1  1  0  0  0
  8 19  1  0  0  0  0
  8 20  1  6  0  0  0
  9 21  1  0  0  0  0
 10 22  1  1  0  0  0
 10 23  1  1  0  0  0
 10 24  1  6  0  0  0
 11 25  1  1  0  0  0
 11 26  1  6  0  0  0
 11 27  1  1  0  0  0
M  END
>  <Formula> (129)
C10H16O

>  <Name> (129)
1,7,7-TRIMETHYLBICYCLO[2.2.1]HEPTAN-2-ONE

>  <CAS-Nr> (129)
21368-68-3

>  <EINECS> (129)
200-945-0, 244-350-4

>  <21 CFR> (129)
172.515 (D-Camphor), 175.105

>  <LD50-rat-oral> (129)
3000

>  <Compound classification> (129)
Monoterpene

>  <Microorganism> (129)
Trichoderma viride

>  <Microorganism classification> (129)
fungi

>  <NIC> (129)
1000

>  <Method abbreviation> (129)
SDT

>  <Ref-Nr> (129)
5902

>  <Marker> (129)
0

>  <Method> (129)
Serial dilution test; method in Russian - not translated

>  <Reference> (129)
Malama, A.A., Kalatskaya, L.M., Korotky, A.G., Kozlov, N.G.: Antimicrobial Properties of Amide and Amino Terpenoid Derivatives; Vesti Akademii Nauk BSSR, Ser. Biol. Nauk, (2), 51-4 (1989)

>  <mol_id> (129)
212

>  <LD50-mouse-oral> (129)
1310

>  <LD50-mou-ip> (129)
884

>  <MolWeight> (129)
152.23

>  <Nickname> (129)
d,l-Camphor

>  <other Names> (129)
2-Camphanone, Caladryl, Bornan-2-one

$$$$

csChmFindW11180110282D

 23 24  0  0  0  0  0  0  0  0999 V2000
    2.4905    4.7705    0.4650 C   0  0  0  0  0  0  0  0  0  0  0  0
    4.1146    4.1972   -0.5443 C   0  0  0  0  0  0  0  0  0  0  0  0
    2.5561    3.3720    1.9218 C   0  0  0  0  0  0  0  0  0  0  0  0
    0.9918    4.0172   -0.5516 C   0  0  0  0  0  0  0  0  0  0  0  0
    2.3873    6.6126    0.9254 C   0  0  0  0  0  0  0  0  0  0  0  0
    4.1313    2.1643   -0.4557 C   0  0  0  0  0  0  0  0  0  0  0  0
    5.1679    5.0892   -1.2663 O   0  0  0  0  0  0  0  0  0  0  0  0
    0.8807    2.2747   -0.4067 C   0  0  0  0  0  0  0  0  0  0  0  0
    2.4786    1.9686    0.5167 C   0  0  0  0  0  0  0  0  0  0  0  0
    5.7120    1.5459    0.4752 C   0  0  0  0  0  0  0  0  0  0  0  0
    4.0865    1.4286   -2.2483 C   0  0  0  0  0  0  0  0  0  0  0  0
    1.4130    3.3995    2.7676 H   0  0  0  0  0  0  0  0  0  0  0  0
    3.7397    3.3918    2.7046 H   0  0  0  0  0  0  0  0  0  0  0  0
    1.2715    6.8448    1.7906 H   0  0  0  0  0  0  0  0  0  0  0  0
    2.2203    7.4039   -0.2569 H   0  0  0  0  0  0  0  0  0  0  0  0
    3.5832    7.0308    1.5913 H   0  0  0  0  0  0  0  0  0  0  0  0
    0.0000    1.3610   -0.9655 H   0  0  0  0  0  0  0  0  0  0  0  0
    5.7233    0.1156    0.5120 H   0  0  0  0  0  0  0  0  0  0  0  0
    5.7654    2.0341    1.8168 H   0  0  0  0  0  0  0  0  0  0  0  0
    6.8803    1.9978   -0.2184 H   0  0  0  0  0  0  0  0  0  0  0  0
    4.1185    0.0000   -2.1937 H   0  0  0  0  0  0  0  0  0  0  0  0
    5.2231    1.8900   -2.9854 H   0  0  0  0  0  0  0  0  0  0  0  0
    2.8979    1.8344   -2.9343 H   0  0  0  0  0  0  0  0  0  0  0  0
  1  2  1  6  0  0  0
  1  3  1  1  0  0  0
  1  4  1  6  0  0  0
  1  5  1  0  0  0  0
  2  6  1  0  0  0  0
  2  7  2  0  0  0  0
  3  9  1  6  0  0  0
  3 12  1  1  0  0  0
  3 13  1  1  0  0  0
  4  8  1  0  0  0  0
  5 14  1  1  0  0  0
  5 15  1  6  0  0  0
  5 16  1  1  0  0  0
  6  9  1  1  0  0  0
  6 10  1  1  0  0  0
  6 11  1  6  0  0  0
  8  9  1  1  0  0  0
  8 17  1  0  0  0  0
 10 18  1  0  0  0  0
 10 19  1  1  0  0  0
 10 20  1  6  0  0  0
 11 21  1  0  0  0  0
 11 22  1  6  0  0  0
 11 23  1  6  0  0  0
M  END
>  <Formula> (130)
C10H16O

>  <Name> (130)
1,3,3-TRIMETHYL-BICYCLO[2.2.1]HEPTAN-2-ONE

>  <CAS-Nr> (130)
1195-79-5

>  <EINECS> (130)
214-804-6

>  <21 CFR> (130)
172.515 (d-Fenchone)

>  <LD50-rat-oral> (130)
6160

>  <Compound classification> (130)
Monoterpene

>  <Microorganism> (130)
Microorganisms

>  <Microorganism type> (130)
in cow milk

>  <Microorganism classification> (130)
MO

>  <Annotation> (130)
strong inhibition

>  <Method abbreviation> (130)
SDT

>  <Ref-Nr> (130)
5921

>  <Marker> (130)
0

>  <Method> (130)
other; Inoculum size: ---; Medium: normal cow milk with sulfur; pH: ---; Incubation-temperature: room temperature; Incubation-time: 24h; Solubility enhancer: none; presence of growth was measured by formation of H2S, the test tube were covered with a paper moistened with Pb(Ac)2, and a PbS precipitate was formed. Absence of PbS indicated inhibitory activity

>  <Reference> (130)
Kobert, K.: Systematische Versuche ueber die antiseptische Wirkung von aetherischen Oelen und Bestandteilen derselben; Bericht von Schimmel und Co in Leipzig 155-63 (1906)

>  <mol_id> (130)
211

>  <MolWeight> (130)
152.23

>  <Nickname> (130)
Fenchone

$$$$

csChmFindW11180110282D

 42 42  0  0  0  0  0  0  0  0999 V2000
    8.5061   11.9623   -2.1145 C   0  0  0  0  0  0  0  0  0  0  0  0
    8.5312   10.0233   -1.6302 C   0  0  0  0  0  0  0  0  0  0  0  0
    7.1584   13.0924   -1.6893 C   0  0  0  0  0  0  0  0  0  0  0  0
    6.6826    9.3318   -1.0538 C   0  0  0  0  0  0  0  0  0  0  0  0
    5.5219   12.4737   -0.6996 C   0  0  0  0  0  0  0  0  0  0  0  0
    7.1804   15.0282   -2.1860 C   0  0  0  0  0  0  0  0  0  0  0  0
    5.8061   10.6721    0.2284 C   0  0  0  0  0  0  0  0  0  0  0  0
    6.8029    7.4195   -0.2330 C   0  0  0  0  0  0  0  0  0  0  0  0
    4.9492    6.5026   -0.3726 C   0  0  0  0  0  0  0  0  0  0  0  0
    7.4727    7.4510    1.7099 C   0  0  0  0  0  0  0  0  0  0  0  0
    8.0715    6.4743   -1.3394 O   0  0  0  0  0  0  0  0  0  0  0  0
    4.8440    4.7039    0.5901 C   0  0  0  0  0  0  0  0  0  0  0  0
    3.0889    3.7964    0.2833 C   0  0  0  0  0  0  0  0  0  0  0  0
    2.6080    2.2551    1.1052 C   0  0  0  0  0  0  0  0  0  0  0  0
    0.8415    1.3831    0.7597 C   0  0  0  0  0  0  0  0  0  0  0  0
    3.8034    1.3257    2.4120 C   0  0  0  0  0  0  0  0  0  0  0  0
    9.7027   12.4434   -2.8537 H   0  0  0  0  0  0  0  0  0  0  0  0
    9.5306    9.8092   -0.5099 H   0  0  0  0  0  0  0  0  0  0  0  0
    9.0147    9.2033   -2.8102 H   0  0  0  0  0  0  0  0  0  0  0  0
    5.8192    9.2266   -2.3010 H   0  0  0  0  0  0  0  0  0  0  0  0
    4.3742   12.3654   -1.6851 H   0  0  0  0  0  0  0  0  0  0  0  0
    5.1289   13.5102    0.3327 H   0  0  0  0  0  0  0  0  0  0  0  0
    5.9236   15.3861   -2.9410 H   0  0  0  0  0  0  0  0  0  0  0  0
    8.3685   15.3651   -3.0505 H   0  0  0  0  0  0  0  0  0  0  0  0
    7.2402   15.8816   -0.9423 H   0  0  0  0  0  0  0  0  0  0  0  0
    6.6916   10.8682    1.4400 H   0  0  0  0  0  0  0  0  0  0  0  0
    4.4763   10.1435    0.7153 H   0  0  0  0  0  0  0  0  0  0  0  0
    4.6388    6.3026   -1.8413 H   0  0  0  0  0  0  0  0  0  0  0  0
    3.9011    7.4308    0.1979 H   0  0  0  0  0  0  0  0  0  0  0  0
    7.8542    6.0618    2.1523 H   0  0  0  0  0  0  0  0  0  0  0  0
    6.3952    7.9723    2.6223 H   0  0  0  0  0  0  0  0  0  0  0  0
    8.6877    8.3324    1.8293 H   0  0  0  0  0  0  0  0  0  0  0  0
    8.1419    5.2596   -0.8804 H   0  0  0  0  0  0  0  0  0  0  0  0
    5.0506    4.9048    2.0807 H   0  0  0  0  0  0  0  0  0  0  0  0
    5.9617    3.7941    0.1132 H   0  0  0  0  0  0  0  0  0  0  0  0
    2.1693    4.4577   -0.6797 H   0  0  0  0  0  0  0  0  0  0  0  0
    1.0505    0.0085    0.1717 H   0  0  0  0  0  0  0  0  0  0  0  0
    0.0000    2.1874   -0.1980 H   0  0  0  0  0  0  0  0  0  0  0  0
    0.0785    1.2299    2.0529 H   0  0  0  0  0  0  0  0  0  0  0  0
    3.2263    0.0000    2.8375 H   0  0  0  0  0  0  0  0  0  0  0  0
    3.9941    2.1798    3.6430 H   0  0  0  0  0  0  0  0  0  0  0  0
    5.1631    1.0814    1.8024 H   0  0  0  0  0  0  0  0  0  0  0  0
  1  2  1  0  0  0  0
  1  3  2  0  0  0  0
  1 17  1  6  0  0  0
  2  4  1  0  0  0  0
  2 18  1  1  0  0  0
  2 19  1  6  0  0  0
  3  5  1  1  0  0  0
  3  6  1  0  0  0  0
  4  7  1  1  0  0  0
  4  8  1  0  0  0  0
  4 20  1  6  0  0  0
  5  7  1  1  0  0  0
  5 21  1  6  0  0  0
  5 22  1  1  0  0  0
  6 23  1  6  0  0  0
  6 24  1  6  0  0  0
  6 25  1  1  0  0  0
  7 26  1  1  0  0  0
  7 27  1  0  0  0  0
  8  9  1  0  0  0  0
  8 10  1  1  0  0  0
  8 11  1  6  0  0  0
  9 12  1  1  0  0  0
  9 28  1  6  0  0  0
  9 29  1  0  0  0  0
 10 30  1  0  0  0  0
 10 31  1  1  0  0  0
 10 32  1  0  0  0  0
 11 33  1  0  0  0  0
 12 13  1  0  0  0  0
 12 34  1  1  0  0  0
 12 35  1  0  0  0  0
 13 14  2  0  0  0  0
 13 36  1  6  0  0  0
 14 15  1  0  0  0  0
 14 16  1  1  0  0  0
 15 37  1  0  0  0  0
 15 38  1  6  0  0  0
 15 39  1  1  0  0  0
 16 40  1  0  0  0  0
 16 41  1  1  0  0  0
 16 42  1  0  0  0  0
M  END
>  <Formula> (131)
C15H26O

>  <Name> (131)
(R*,R*)-ALPHA,4-DIMETHYL-ALPHA-(4-METHYL-3-PENTENYL)-3-CYCLOHEXENE-1-METHANOL

>  <CAS-Nr> (131)
515-69-5

>  <EINECS> (131)
208-205-9

>  <LD50-rat-oral> (131)
14850

>  <Compound classification> (131)
Sesquiterpene

>  <Microorganism> (131)
Bacillus subtilis

>  <Microorganism type> (131)
231

>  <Microorganism classification> (131)
Bac+

>  <MIC> (131)
32

>  <Method abbreviation> (131)
SDT

>  <Ref-Nr> (131)
5939

>  <Marker> (131)
0

>  <Method> (131)
Serial dilution test; method cited

>  <Reference> (131)
Dull, G.G., Fairley, L.J., Gottshall, R.Y.: Antibacterial Substances in Seed Plants Active against Tubercle bacilli. IV. The Antibacterial Sesquiterpenes of Populus tacamahaca; Antibiotics Annual 682-6 (1956-1957)

>  <mol_id> (131)
180

>  <LD50-mouse-oral> (131)
11350

>  <MolWeight> (131)
222.36

>  <Nickname> (131)
alpha-Bisabolol

>  <other Names> (131)
Dragosantol, (-)-alpha-Bisabolol

$$$$

csChmFindW11180110282D

 28 28  0  0  0  0  0  0  0  0999 V2000
    2.7204    1.0763   -0.0075 C   0  0  0  0  0  0  0  0  0  0  0  0
    4.2938    1.0775   -0.0063 C   0  0  0  0  0  0  0  0  0  0  0  0
    1.9450    2.4693   -0.0074 C   0  0  0  0  0  0  0  0  0  0  0  0
    5.0977    2.4510   -0.0052 C   0  0  0  0  0  0  0  0  0  0  0  0
    2.7390    3.8479   -0.0061 C   0  0  0  0  0  0  0  0  0  0  0  0
    0.3914    2.3963   -0.0084 O   0  0  0  0  0  0  0  0  0  0  0  0
    4.3152    3.8310   -0.0051 C   0  0  0  0  0  0  0  0  0  0  0  0
    6.7594    2.3945   -0.0041 C   0  0  0  0  0  0  0  0  0  0  0  0
    7.4467    3.7873   -0.0032 O   0  0  0  0  0  0  0  0  0  0  0  0
    7.5804    1.2605   -0.0038 O   0  0  0  0  0  0  0  0  0  0  0  0
    9.0774    3.7844   -0.0019 C   0  0  0  0  0  0  0  0  0  0  0  0
    9.5534    5.4362   -0.0013 C   0  0  0  0  0  0  0  0  0  0  0  0
   11.2641    5.5585    0.0005 C   0  0  0  0  0  0  0  0  0  0  0  0
   11.7684    7.1899    0.0008 C   0  0  0  0  0  0  0  0  0  0  0  0
    2.0748    0.0112   -0.0084 H   0  0  0  0  0  0  0  0  0  0  0  0
    4.9277    0.0000   -0.0065 H   0  0  0  0  0  0  0  0  0  0  0  0
    2.1207    4.9288   -0.0060 H   0  0  0  0  0  0  0  0  0  0  0  0
    0.0000    3.4222   -0.0083 H   0  0  0  0  0  0  0  0  0  0  0  0
    4.9560    4.9034   -0.0042 H   0  0  0  0  0  0  0  0  0  0  0  0
    9.4871    3.1729   -1.0371 H   0  0  0  0  0  0  0  0  0  0  0  0
    9.4857    3.1723    1.0335 H   0  0  0  0  0  0  0  0  0  0  0  0
    9.0717    6.0169    1.0208 H   0  0  0  0  0  0  0  0  0  0  0  0
    9.0739    6.0166   -1.0246 H   0  0  0  0  0  0  0  0  0  0  0  0
   11.7338    4.9662   -1.0223 H   0  0  0  0  0  0  0  0  0  0  0  0
   11.7319    4.9659    1.0240 H   0  0  0  0  0  0  0  0  0  0  0  0
   13.0319    7.2589    0.0025 H   0  0  0  0  0  0  0  0  0  0  0  0
   11.3337    7.7924    1.0256 H   0  0  0  0  0  0  0  0  0  0  0  0
   11.3365    7.7917   -1.0256 H   0  0  0  0  0  0  0  0  0  0  0  0
  1  2  2  0  0  0  0
  1  3  1  0  0  0  0
  1 15  1  0  0  0  0
  2  4  1  0  0  0  0
  2 16  1  0  0  0  0
  3  5  2  0  0  0  0
  3  6  1  0  0  0  0
  4  7  2  0  0  0  0
  4  8  1  0  0  0  0
  5  7  1  0  0  0  0
  5 17  1  0  0  0  0
  6 18  1  0  0  0  0
  7 19  1  0  0  0  0
  8  9  1  0  0  0  0
  8 10  2  0  0  0  0
  9 11  1  0  0  0  0
 11 12  1  0  0  0  0
 11 20  1  6  0  0  0
 11 21  1  1  0  0  0
 12 13  1  0  0  0  0
 12 22  1  1  0  0  0
 12 23  1  6  0  0  0
 13 14  1  0  0  0  0
 13 24  1  6  0  0  0
 13 25  1  1  0  0  0
 14 26  1  0  0  0  0
 14 27  1  1  0  0  0
 14 28  1  6  0  0  0
M  END
>  <Formula> (132)
C11H14O3

>  <Name> (132)
4-HYDROXY-BENZOIC ACID, BUTYL ESTER

>  <CAS-Nr> (132)
94-26-8

>  <EINECS> (132)
202-318-7

>  <21 CFR> (132)
172.515

>  <Compound classification> (132)
Ar-COOR

>  <Microorganism> (132)
Epidermophyton Kaufman-Wolff

>  <Microorganism classification> (132)
fungi

>  <MIC> (132)
40

>  <Method abbreviation> (132)
SDT

>  <Ref-Nr> (132)
5994

>  <Marker> (132)
0

>  <Method> (132)
Serial dilution test; Inoculum size: 1 drop of 10 day culture; Medium: mash broth; pH: 6.0-6.2; Incubation-temperature: 30 degrees Centigrade; Incubation-time: 5 or 10d; Solubility enhancer: ethanol Agar diffusion test; Inoculum size: spore suspension; Medium: mash agar; pH: 6.0-6.2; hole size: 10 mm; Incubation-temperature: 30 degrees Centigrade; Incubation-time: 5d; Solubility enhancer: ethanol

>  <Reference> (132)
Zsolnai, T.: Versuche zur Entdeckung neuer Fungistatika. I. Phenol-Derivate; Biochemical Pharmacology 5, 1-19 (1960)

>  <mol_id> (132)
997

>  <LD50-mouse-oral> (132)
13200

>  <LD50-mou-ip> (132)
230

>  <MolWeight> (132)
194.22

>  <Nickname> (132)
Butylparaben

>  <other Names> (132)
Butyl p-hydroxybenzoate

$$$$

csChmFindW11180110282D

 27 28  0  0  0  0  0  0  0  0999 V2000
    2.9004    4.4099   -0.5349 C   0  0  0  0  0  0  0  0  0  0  0  0
    1.2040    3.8269   -1.5240 C   0  0  0  0  0  0  0  0  0  0  0  0
    4.4291    3.8959   -1.8253 C   0  0  0  0  0  0  0  0  0  0  0  0
    2.9248    6.2933    0.1026 C   0  0  0  0  0  0  0  0  0  0  0  0
    3.0330    2.9058    0.9152 C   0  0  0  0  0  0  0  0  0  0  0  0
    1.1940    1.7981   -1.4816 C   0  0  0  0  0  0  0  0  0  0  0  0
    0.0896    4.7933   -2.2265 O   0  0  0  0  0  0  0  0  0  0  0  0
    4.4617    1.8463   -1.7738 C   0  0  0  0  0  0  0  0  0  0  0  0
    2.9371    1.3619   -0.4857 C   0  0  0  0  0  0  0  0  0  0  0  0
    4.7447    2.9332    1.9749 C   0  0  0  0  0  0  0  0  0  0  0  0
    1.4828    2.9054    2.2060 C   0  0  0  0  0  0  0  0  0  0  0  0
    5.7151    4.4764   -1.3561 H   0  0  0  0  0  0  0  0  0  0  0  0
    4.1612    4.4086   -3.1954 H   0  0  0  0  0  0  0  0  0  0  0  0
    4.2524    6.6260    0.6890 H   0  0  0  0  0  0  0  0  0  0  0  0
    1.8798    6.4980    1.1443 H   0  0  0  0  0  0  0  0  0  0  0  0
    2.6491    7.2209   -1.0298 H   0  0  0  0  0  0  0  0  0  0  0  0
    1.1746    1.2371   -2.8591 H   0  0  0  0  0  0  0  0  0  0  0  0
    0.0000    1.2924   -0.7517 H   0  0  0  0  0  0  0  0  0  0  0  0
    5.7654    1.3361   -1.2720 H   0  0  0  0  0  0  0  0  0  0  0  0
    4.2330    1.2640   -3.1234 H   0  0  0  0  0  0  0  0  0  0  0  0
    3.0029    0.0000    0.0721 H   0  0  0  0  0  0  0  0  0  0  0  0
    4.7866    1.7584    2.8891 H   0  0  0  0  0  0  0  0  0  0  0  0
    4.8101    4.1760    2.7941 H   0  0  0  0  0  0  0  0  0  0  0  0
    5.9492    2.8912    1.1054 H   0  0  0  0  0  0  0  0  0  0  0  0
    1.3865    1.5805    2.8774 H   0  0  0  0  0  0  0  0  0  0  0  0
    0.1896    3.1864    1.5257 H   0  0  0  0  0  0  0  0  0  0  0  0
    1.6844    3.9511    3.2476 H   0  0  0  0  0  0  0  0  0  0  0  0
  1  2  1  6  0  0  0
  1  3  1  6  0  0  0
  1  4  1  0  0  0  0
  1  5  1  1  0  0  0
  2  6  1  0  0  0  0
  2  7  2  0  0  0  0
  3  8  1  0  0  0  0
  3 12  1  0  0  0  0
  3 13  1  6  0  0  0
  4 14  1  0  0  0  0
  4 15  1  1  0  0  0
  4 16  1  6  0  0  0
  5  9  1  6  0  0  0
  5 10  1  1  0  0  0
  5 11  1  1  0  0  0
  6  9  1  1  0  0  0
  6 17  1  6  0  0  0
  6 18  1  1  0  0  0
  8  9  1  1  0  0  0
  8 19  1  0  0  0  0
  8 20  1  6  0  0  0
  9 21  1  0  0  0  0
 10 22  1  1  0  0  0
 10 23  1  1  0  0  0
 10 24  1  6  0  0  0
 11 25  1  1  0  0  0
 11 26  1  6  0  0  0
 11 27  1  1  0  0  0
M  END
>  <Formula> (133)
C10H16O

>  <Name> (133)
1,7,7-TRIMETHYLBICYCLO[2.2.1]HEPTAN-2-ONE

>  <CAS-Nr> (133)
21368-68-3

>  <EINECS> (133)
200-945-0, 244-350-4

>  <21 CFR> (133)
172.515 (D-Camphor), 175.105

>  <LD50-rat-oral> (133)
3000

>  <Compound classification> (133)
Monoterpene

>  <Microorganism> (133)
Bacillus subtilis

>  <Microorganism type> (133)
BUFO Kulmbach Collection

>  <Microorganism classification> (133)
Bac+

>  <NIC> (133)
400

>  <Annotation> (133)
inoculum: 10E5 cells/plate

>  <Method abbreviation> (133)
ADlT

>  <Ref-Nr> (133)
6115

>  <Marker> (133)
0

>  <Method> (133)
Agar dilution test; Inoculum size: 10E5 or 10E8 cells/plate; Medium: Tryptic soy agar; pH: ---; Incubation-temperature: 35 degrees Centigrade; Incubation-time: 24-48h; Solubility enhancer: ethanol

>  <Reference> (133)
Kivanc, M., Akguel, A.: Effect of some Essential Oil Components on Growth of Food-Borne Bacteria and Synergism with Food Components; Flavour and Fragrance Journal 3, 95-8 (1988)

>  <mol_id> (133)
212

>  <LD50-mouse-oral> (133)
1310

>  <LD50-mou-ip> (133)
884

>  <MolWeight> (133)
152.23

>  <Nickname> (133)
d,l-Camphor

>  <other Names> (133)
2-Camphanone, Caladryl, Bornan-2-one

$$$$

csChmFindW11180110282D

 27 27  0  0  0  0  0  0  0  0999 V2000
    2.8239    8.5182    0.6901 C   0  0  0  0  0  0  0  0  0  0  0  0
    1.3924    7.6588   -0.5421 C   0  0  0  0  0  0  0  0  0  0  0  0
    4.1130    7.5136    1.6004 C   0  0  0  0  0  0  0  0  0  0  0  0
    2.8011   10.6011    0.8104 C   0  0  0  0  0  0  0  0  0  0  0  0
    1.2457    5.5649   -0.2895 C   0  0  0  0  0  0  0  0  0  0  0  0
    4.2468    5.4540    1.4828 C   0  0  0  0  0  0  0  0  0  0  0  0
    3.1678    4.6651   -0.1742 C   0  0  0  0  0  0  0  0  0  0  0  0
    3.0252    2.5828   -0.0525 C   0  0  0  0  0  0  0  0  0  0  0  0
    3.9602    1.5407   -1.5776 C   0  0  0  0  0  0  0  0  0  0  0  0
    2.1207    1.7158    1.3283 C   0  0  0  0  0  0  0  0  0  0  0  0
    0.9289   11.2086    1.0562 O   0  0  0  0  0  0  0  0  0  0  0  0
    1.7567    7.9900   -2.0312 H   0  0  0  0  0  0  0  0  0  0  0  0
    0.0000    8.3188   -0.2483 H   0  0  0  0  0  0  0  0  0  0  0  0
    5.1493    8.1867    2.5148 H   0  0  0  0  0  0  0  0  0  0  0  0
    3.6793   11.1062    2.0082 H   0  0  0  0  0  0  0  0  0  0  0  0
    3.3721   11.2032   -0.5237 H   0  0  0  0  0  0  0  0  0  0  0  0
    0.4513    4.9508   -1.4879 H   0  0  0  0  0  0  0  0  0  0  0  0
    0.4477    5.2460    1.0181 H   0  0  0  0  0  0  0  0  0  0  0  0
    3.6900    4.8375    2.8143 H   0  0  0  0  0  0  0  0  0  0  0  0
    5.7496    5.0285    1.3679 H   0  0  0  0  0  0  0  0  0  0  0  0
    3.9534    5.0436   -1.4848 H   0  0  0  0  0  0  0  0  0  0  0  0
    3.8084    0.0000   -1.3955 H   0  0  0  0  0  0  0  0  0  0  0  0
    5.4819    1.8869   -1.6083 H   0  0  0  0  0  0  0  0  0  0  0  0
    3.3426    1.9382   -2.9548 H   0  0  0  0  0  0  0  0  0  0  0  0
    2.0186    0.1904    1.4100 H   0  0  0  0  0  0  0  0  0  0  0  0
    1.4236    2.4776    2.4590 H   0  0  0  0  0  0  0  0  0  0  0  0
    0.9806   12.5483    1.1603 H   0  0  0  0  0  0  0  0  0  0  0  0
  1  2  1  6  0  0  0
  1  3  2  0  0  0  0
  1  4  1  0  0  0  0
  2  5  1  0  0  0  0
  2 12  1  6  0  0  0
  2 13  1  0  0  0  0
  3  6  1  0  0  0  0
  3 14  1  1  0  0  0
  4 11  1  0  0  0  0
  4 15  1  1  0  0  0
  4 16  1  6  0  0  0
  5  7  1  0  0  0  0
  5 17  1  6  0  0  0
  5 18  1  1  0  0  0
  6  7  1  6  0  0  0
  6 19  1  1  0  0  0
  6 20  1  0  0  0  0
  7  8  1  0  0  0  0
  7 21  1  6  0  0  0
  8  9  1  6  0  0  0
  8 10  2  0  0  0  0
  9 22  1  0  0  0  0
  9 23  1  0  0  0  0
  9 24  1  6  0  0  0
 10 25  1  0  0  0  0
 10 26  1  1  0  0  0
 11 27  1  0  0  0  0
M  END
>  <Formula> (134)
C10H16O

>  <Name> (134)
(4-ISOPROPENYL-1-CYCLOHEXENYL)-METHANOL

>  <Compound classification> (134)
Monoterpene

>  <Microorganism> (134)
Candida albicans

>  <Microorganism classification> (134)
yeast

>  <MMC> (134)
5000

>  <Annotation> (134)
Killing time: 24h

>  <Method abbreviation> (134)
SDT

>  <Ref-Nr> (134)
6132

>  <Marker> (134)
0

>  <Method> (134)
Serial dilution test; Inoculum size: 10E6 cfu/ml; Medium: Sabouraud -dextrose broth; pH: ---; Incubation-temperature: 37 degrees Centigrade (bacteria, yeast), 30 degrees Centigrade fungi; Incubation-time: 10,60 min, 24h; Solubility enhancer: ---, absence of growth was determined in subcultures

>  <Reference> (134)
Chastain, D.E., Sanders, W.E., Sanders, C.C.: Using Limonen-10-ol to Kill Bacteria, Yeast, and Fungi; US 5,543,435 (1996)

>  <mol_id> (134)
1158

>  <MolWeight> (134)
152.23

>  <Nickname> (134)
Limonen-10-ol

$$$$

csChmFindW11180110282D

 27 27  0  0  0  0  0  0  0  0999 V2000
    2.8239    8.5182    0.6901 C   0  0  0  0  0  0  0  0  0  0  0  0
    1.3924    7.6588   -0.5421 C   0  0  0  0  0  0  0  0  0  0  0  0
    4.1130    7.5136    1.6004 C   0  0  0  0  0  0  0  0  0  0  0  0
    2.8011   10.6011    0.8104 C   0  0  0  0  0  0  0  0  0  0  0  0
    1.2457    5.5649   -0.2895 C   0  0  0  0  0  0  0  0  0  0  0  0
    4.2468    5.4540    1.4828 C   0  0  0  0  0  0  0  0  0  0  0  0
    3.1678    4.6651   -0.1742 C   0  0  0  0  0  0  0  0  0  0  0  0
    3.0252    2.5828   -0.0525 C   0  0  0  0  0  0  0  0  0  0  0  0
    3.9602    1.5407   -1.5776 C   0  0  0  0  0  0  0  0  0  0  0  0
    2.1207    1.7158    1.3283 C   0  0  0  0  0  0  0  0  0  0  0  0
    0.9289   11.2086    1.0562 O   0  0  0  0  0  0  0  0  0  0  0  0
    1.7567    7.9900   -2.0312 H   0  0  0  0  0  0  0  0  0  0  0  0
    0.0000    8.3188   -0.2483 H   0  0  0  0  0  0  0  0  0  0  0  0
    5.1493    8.1867    2.5148 H   0  0  0  0  0  0  0  0  0  0  0  0
    3.6793   11.1062    2.0082 H   0  0  0  0  0  0  0  0  0  0  0  0
    3.3721   11.2032   -0.5237 H   0  0  0  0  0  0  0  0  0  0  0  0
    0.4513    4.9508   -1.4879 H   0  0  0  0  0  0  0  0  0  0  0  0
    0.4477    5.2460    1.0181 H   0  0  0  0  0  0  0  0  0  0  0  0
    3.6900    4.8375    2.8143 H   0  0  0  0  0  0  0  0  0  0  0  0
    5.7496    5.0285    1.3679 H   0  0  0  0  0  0  0  0  0  0  0  0
    3.9534    5.0436   -1.4848 H   0  0  0  0  0  0  0  0  0  0  0  0
    3.8084    0.0000   -1.3955 H   0  0  0  0  0  0  0  0  0  0  0  0
    5.4819    1.8869   -1.6083 H   0  0  0  0  0  0  0  0  0  0  0  0
    3.3426    1.9382   -2.9548 H   0  0  0  0  0  0  0  0  0  0  0  0
    2.0186    0.1904    1.4100 H   0  0  0  0  0  0  0  0  0  0  0  0
    1.4236    2.4776    2.4590 H   0  0  0  0  0  0  0  0  0  0  0  0
    0.9806   12.5483    1.1603 H   0  0  0  0  0  0  0  0  0  0  0  0
  1  2  1  6  0  0  0
  1  3  2  0  0  0  0
  1  4  1  0  0  0  0
  2  5  1  0  0  0  0
  2 12  1  6  0  0  0
  2 13  1  0  0  0  0
  3  6  1  0  0  0  0
  3 14  1  1  0  0  0
  4 11  1  0  0  0  0
  4 15  1  1  0  0  0
  4 16  1  6  0  0  0
  5  7  1  0  0  0  0
  5 17  1  6  0  0  0
  5 18  1  1  0  0  0
  6  7  1  6  0  0  0
  6 19  1  1  0  0  0
  6 20  1  0  0  0  0
  7  8  1  0  0  0  0
  7 21  1  6  0  0  0
  8  9  1  6  0  0  0
  8 10  2  0  0  0  0
  9 22  1  0  0  0  0
  9 23  1  0  0  0  0
  9 24  1  6  0  0  0
 10 25  1  0  0  0  0
 10 26  1  1  0  0  0
 11 27  1  0  0  0  0
M  END
>  <Formula> (135)
C10H16O

>  <Name> (135)
(4-ISOPROPENYL-1-CYCLOHEXENYL)-METHANOL

>  <Compound classification> (135)
Monoterpene

>  <Microorganism> (135)
Candida albicans

>  <Microorganism classification> (135)
yeast

>  <MMC> (135)
10000

>  <Annotation> (135)
Killing time: 10 min.

>  <Method abbreviation> (135)
SDT

>  <Ref-Nr> (135)
6132

>  <Marker> (135)
0

>  <Method> (135)
Serial dilution test; Inoculum size: 10E6 cfu/ml; Medium: Sabouraud -dextrose broth; pH: ---; Incubation-temperature: 37 degrees Centigrade (bacteria, yeast), 30 degrees Centigrade fungi; Incubation-time: 10,60 min, 24h; Solubility enhancer: ---, absence of growth was determined in subcultures

>  <Reference> (135)
Chastain, D.E., Sanders, W.E., Sanders, C.C.: Using Limonen-10-ol to Kill Bacteria, Yeast, and Fungi; US 5,543,435 (1996)

>  <mol_id> (135)
1158

>  <MolWeight> (135)
152.23

>  <Nickname> (135)
Limonen-10-ol

$$$$

csChmFindW11180110282D

 27 27  0  0  0  0  0  0  0  0999 V2000
    2.8239    8.5182    0.6901 C   0  0  0  0  0  0  0  0  0  0  0  0
    1.3924    7.6588   -0.5421 C   0  0  0  0  0  0  0  0  0  0  0  0
    4.1130    7.5136    1.6004 C   0  0  0  0  0  0  0  0  0  0  0  0
    2.8011   10.6011    0.8104 C   0  0  0  0  0  0  0  0  0  0  0  0
    1.2457    5.5649   -0.2895 C   0  0  0  0  0  0  0  0  0  0  0  0
    4.2468    5.4540    1.4828 C   0  0  0  0  0  0  0  0  0  0  0  0
    3.1678    4.6651   -0.1742 C   0  0  0  0  0  0  0  0  0  0  0  0
    3.0252    2.5828   -0.0525 C   0  0  0  0  0  0  0  0  0  0  0  0
    3.9602    1.5407   -1.5776 C   0  0  0  0  0  0  0  0  0  0  0  0
    2.1207    1.7158    1.3283 C   0  0  0  0  0  0  0  0  0  0  0  0
    0.9289   11.2086    1.0562 O   0  0  0  0  0  0  0  0  0  0  0  0
    1.7567    7.9900   -2.0312 H   0  0  0  0  0  0  0  0  0  0  0  0
    0.0000    8.3188   -0.2483 H   0  0  0  0  0  0  0  0  0  0  0  0
    5.1493    8.1867    2.5148 H   0  0  0  0  0  0  0  0  0  0  0  0
    3.6793   11.1062    2.0082 H   0  0  0  0  0  0  0  0  0  0  0  0
    3.3721   11.2032   -0.5237 H   0  0  0  0  0  0  0  0  0  0  0  0
    0.4513    4.9508   -1.4879 H   0  0  0  0  0  0  0  0  0  0  0  0
    0.4477    5.2460    1.0181 H   0  0  0  0  0  0  0  0  0  0  0  0
    3.6900    4.8375    2.8143 H   0  0  0  0  0  0  0  0  0  0  0  0
    5.7496    5.0285    1.3679 H   0  0  0  0  0  0  0  0  0  0  0  0
    3.9534    5.0436   -1.4848 H   0  0  0  0  0  0  0  0  0  0  0  0
    3.8084    0.0000   -1.3955 H   0  0  0  0  0  0  0  0  0  0  0  0
    5.4819    1.8869   -1.6083 H   0  0  0  0  0  0  0  0  0  0  0  0
    3.3426    1.9382   -2.9548 H   0  0  0  0  0  0  0  0  0  0  0  0
    2.0186    0.1904    1.4100 H   0  0  0  0  0  0  0  0  0  0  0  0
    1.4236    2.4776    2.4590 H   0  0  0  0  0  0  0  0  0  0  0  0
    0.9806   12.5483    1.1603 H   0  0  0  0  0  0  0  0  0  0  0  0
  1  2  1  6  0  0  0
  1  3  2  0  0  0  0
  1  4  1  0  0  0  0
  2  5  1  0  0  0  0
  2 12  1  6  0  0  0
  2 13  1  0  0  0  0
  3  6  1  0  0  0  0
  3 14  1  1  0  0  0
  4 11  1  0  0  0  0
  4 15  1  1  0  0  0
  4 16  1  6  0  0  0
  5  7  1  0  0  0  0
  5 17  1  6  0  0  0
  5 18  1  1  0  0  0
  6  7  1  6  0  0  0
  6 19  1  1  0  0  0
  6 20  1  0  0  0  0
  7  8  1  0  0  0  0
  7 21  1  6  0  0  0
  8  9  1  6  0  0  0
  8 10  2  0  0  0  0
  9 22  1  0  0  0  0
  9 23  1  0  0  0  0
  9 24  1  6  0  0  0
 10 25  1  0  0  0  0
 10 26  1  1  0  0  0
 11 27  1  0  0  0  0
M  END
>  <Formula> (136)
C10H16O

>  <Name> (136)
(4-ISOPROPENYL-1-CYCLOHEXENYL)-METHANOL

>  <Compound classification> (136)
Monoterpene

>  <Microorganism> (136)
Candida albicans

>  <Microorganism classification> (136)
yeast

>  <MMC> (136)
20000

>  <Annotation> (136)
Killing time: 60 min.

>  <Method abbreviation> (136)
SDT

>  <Ref-Nr> (136)
6132

>  <Marker> (136)
0

>  <Method> (136)
Serial dilution test; Inoculum size: 10E6 cfu/ml; Medium: Sabouraud -dextrose broth; pH: ---; Incubation-temperature: 37 degrees Centigrade (bacteria, yeast), 30 degrees Centigrade fungi; Incubation-time: 10,60 min, 24h; Solubility enhancer: ---, absence of growth was determined in subcultures

>  <Reference> (136)
Chastain, D.E., Sanders, W.E., Sanders, C.C.: Using Limonen-10-ol to Kill Bacteria, Yeast, and Fungi; US 5,543,435 (1996)

>  <mol_id> (136)
1158

>  <MolWeight> (136)
152.23

>  <Nickname> (136)
Limonen-10-ol

$$$$

csChmFindW11180110282D

 44 43  0  0  0  0  0  0  0  0999 V2000
    2.9312    2.7591    1.0430 C   0  0  0  0  0  0  0  0  0  0  0  0
    4.2190    2.3217   -0.2182 C   0  0  0  0  0  0  0  0  0  0  0  0
    3.3056    4.0645    2.5757 C   0  0  0  0  0  0  0  0  0  0  0  0
    1.0477    1.9583    0.9862 C   0  0  0  0  0  0  0  0  0  0  0  0
    6.1112    3.0986   -0.2098 C   0  0  0  0  0  0  0  0  0  0  0  0
    7.3206    2.2399   -1.6920 C   0  0  0  0  0  0  0  0  0  0  0  0
    9.1915    3.0977   -1.7368 C   0  0  0  0  0  0  0  0  0  0  0  0
    9.2858    5.0467   -2.3581 C   0  0  0  0  0  0  0  0  0  0  0  0
   10.7040    2.1432   -1.2451 C   0  0  0  0  0  0  0  0  0  0  0  0
   12.5950    2.9245   -1.2860 C   0  0  0  0  0  0  0  0  0  0  0  0
   13.9924    1.6457   -0.3957 C   0  0  0  0  0  0  0  0  0  0  0  0
   15.9477    2.4189   -0.4889 C   0  0  0  0  0  0  0  0  0  0  0  0
   17.1588    1.4482    0.9285 C   0  0  0  0  0  0  0  0  0  0  0  0
   16.7400    2.2144   -2.4145 C   0  0  0  0  0  0  0  0  0  0  0  0
   18.9691    2.4660    1.2282 C   0  0  0  0  0  0  0  0  0  0  0  0
   19.9119    1.5359    2.6748 O   0  0  0  0  0  0  0  0  0  0  0  0
    3.9004    1.3425   -1.3393 H   0  0  0  0  0  0  0  0  0  0  0  0
    4.3915    3.4891    3.5141 H   0  0  0  0  0  0  0  0  0  0  0  0
    2.0349    4.3345    3.4079 H   0  0  0  0  0  0  0  0  0  0  0  0
    3.8239    5.4115    2.0216 H   0  0  0  0  0  0  0  0  0  0  0  0
    0.7484    1.2137    2.3067 H   0  0  0  0  0  0  0  0  0  0  0  0
    0.8845    0.9635   -0.1822 H   0  0  0  0  0  0  0  0  0  0  0  0
    0.0000    3.0820    0.8200 H   0  0  0  0  0  0  0  0  0  0  0  0
    6.7614    2.8758    1.1831 H   0  0  0  0  0  0  0  0  0  0  0  0
    6.0403    4.6360   -0.4273 H   0  0  0  0  0  0  0  0  0  0  0  0
    6.6479    2.4262   -3.0785 H   0  0  0  0  0  0  0  0  0  0  0  0
    7.4304    0.7140   -1.4387 H   0  0  0  0  0  0  0  0  0  0  0  0
   10.4225    5.2342   -3.3887 H   0  0  0  0  0  0  0  0  0  0  0  0
    9.5760    5.9735   -1.1546 H   0  0  0  0  0  0  0  0  0  0  0  0
    7.9596    5.4950   -3.0071 H   0  0  0  0  0  0  0  0  0  0  0  0
   10.5892    0.6958   -0.7870 H   0  0  0  0  0  0  0  0  0  0  0  0
   12.6088    4.2972   -0.5585 H   0  0  0  0  0  0  0  0  0  0  0  0
   12.9972    3.1991   -2.7618 H   0  0  0  0  0  0  0  0  0  0  0  0
   13.9528    0.2614   -1.0891 H   0  0  0  0  0  0  0  0  0  0  0  0
   13.5941    1.4285    1.0869 H   0  0  0  0  0  0  0  0  0  0  0  0
   15.8921    3.9334   -0.1334 H   0  0  0  0  0  0  0  0  0  0  0  0
   17.4546    0.0000    0.4696 H   0  0  0  0  0  0  0  0  0  0  0  0
   16.4170    1.3575    2.2860 H   0  0  0  0  0  0  0  0  0  0  0  0
   18.1431    2.8503   -2.4922 H   0  0  0  0  0  0  0  0  0  0  0  0
   15.8358    2.9129   -3.4499 H   0  0  0  0  0  0  0  0  0  0  0  0
   16.8588    0.7248   -2.7980 H   0  0  0  0  0  0  0  0  0  0  0  0
   18.7079    3.9406    1.6339 H   0  0  0  0  0  0  0  0  0  0  0  0
   19.8350    2.4480   -0.0587 H   0  0  0  0  0  0  0  0  0  0  0  0
   21.0595    2.1849    2.8570 H   0  0  0  0  0  0  0  0  0  0  0  0
  1  2  2  0  0  0  0
  1  3  1  1  0  0  0
  1  4  1  0  0  0  0
  2  5  1  0  0  0  0
  2 17  1  6  0  0  0
  3 18  1  1  0  0  0
  3 19  1  1  0  0  0
  3 20  1  0  0  0  0
  4 21  1  1  0  0  0
  4 22  1  6  0  0  0
  4 23  1  0  0  0  0
  5  6  1  6  0  0  0
  5 24  1  1  0  0  0
  5 25  1  0  0  0  0
  6  7  1  0  0  0  0
  6 26  1  6  0  0  0
  6 27  1  0  0  0  0
  7  8  1  0  0  0  0
  7  9  2  0  0  0  0
  8 28  1  6  0  0  0
  8 29  1  1  0  0  0
  8 30  1  0  0  0  0
  9 10  1  0  0  0  0
  9 31  1  0  0  0  0
 10 11  1  0  0  0  0
 10 32  1  1  0  0  0
 10 33  1  6  0  0  0
 11 12  1  0  0  0  0
 11 34  1  6  0  0  0
 11 35  1  1  0  0  0
 12 13  1  1  0  0  0
 12 14  1  6  0  0  0
 12 36  1  0  0  0  0
 13 15  1  0  0  0  0
 13 37  1  0  0  0  0
 13 38  1  1  0  0  0
 14 39  1  0  0  0  0
 14 40  1  6  0  0  0
 14 41  1  0  0  0  0
 15 16  1  1  0  0  0
 15 42  1  0  0  0  0
 15 43  1  6  0  0  0
 16 44  1  0  0  0  0
M  END
>  <Formula> (137)
C15H28O

>  <Name> (137)
3,7,11-TRIMETHYL-6(E),10-DODECADIEN-1-OL

>  <Compound classification> (137)
Sesquiterpene

>  <Microorganism> (137)
Bacillus subtilis

>  <Microorganism classification> (137)
Bac+

>  <MIC> (137)
20

>  <Method abbreviation> (137)
ADlT

>  <Ref-Nr> (137)
6134

>  <Marker> (137)
0

>  <Method> (137)
Agar dilution test; Inoculum size: 10E8-10E9; Medium: brain-heart infusion medium + dried broth + yeast extract powder (acne bacteria cultured in GAM medium = Gifu aerobic medium); pH: ---; Incubation-temperature: 30 degrees Centigrade; Incubation-time: 48h; Solubility enhancer: ethanol, dimethylsulfoxide

>  <Reference> (137)
Harada, M., Matsuda, H., Yamamoto, T.: Perfume Containing (6E) -2,3-Dihydrofarnesol; US 5,753,610 (1998)

>  <mol_id> (137)
1159

>  <MolWeight> (137)
224.38

>  <Nickname> (137)
(6E)-2,3-Dihydrofarnesol

$$$$

csChmFindW11180110282D

 44 43  0  0  0  0  0  0  0  0999 V2000
    2.9312    2.7591    1.0430 C   0  0  0  0  0  0  0  0  0  0  0  0
    4.2190    2.3217   -0.2182 C   0  0  0  0  0  0  0  0  0  0  0  0
    3.3056    4.0645    2.5757 C   0  0  0  0  0  0  0  0  0  0  0  0
    1.0477    1.9583    0.9862 C   0  0  0  0  0  0  0  0  0  0  0  0
    6.1112    3.0986   -0.2098 C   0  0  0  0  0  0  0  0  0  0  0  0
    7.3206    2.2399   -1.6920 C   0  0  0  0  0  0  0  0  0  0  0  0
    9.1915    3.0977   -1.7368 C   0  0  0  0  0  0  0  0  0  0  0  0
    9.2858    5.0467   -2.3581 C   0  0  0  0  0  0  0  0  0  0  0  0
   10.7040    2.1432   -1.2451 C   0  0  0  0  0  0  0  0  0  0  0  0
   12.5950    2.9245   -1.2860 C   0  0  0  0  0  0  0  0  0  0  0  0
   13.9924    1.6457   -0.3957 C   0  0  0  0  0  0  0  0  0  0  0  0
   15.9477    2.4189   -0.4889 C   0  0  0  0  0  0  0  0  0  0  0  0
   17.1588    1.4482    0.9285 C   0  0  0  0  0  0  0  0  0  0  0  0
   16.7400    2.2144   -2.4145 C   0  0  0  0  0  0  0  0  0  0  0  0
   18.9691    2.4660    1.2282 C   0  0  0  0  0  0  0  0  0  0  0  0
   19.9119    1.5359    2.6748 O   0  0  0  0  0  0  0  0  0  0  0  0
    3.9004    1.3425   -1.3393 H   0  0  0  0  0  0  0  0  0  0  0  0
    4.3915    3.4891    3.5141 H   0  0  0  0  0  0  0  0  0  0  0  0
    2.0349    4.3345    3.4079 H   0  0  0  0  0  0  0  0  0  0  0  0
    3.8239    5.4115    2.0216 H   0  0  0  0  0  0  0  0  0  0  0  0
    0.7484    1.2137    2.3067 H   0  0  0  0  0  0  0  0  0  0  0  0
    0.8845    0.9635   -0.1822 H   0  0  0  0  0  0  0  0  0  0  0  0
    0.0000    3.0820    0.8200 H   0  0  0  0  0  0  0  0  0  0  0  0
    6.7614    2.8758    1.1831 H   0  0  0  0  0  0  0  0  0  0  0  0
    6.0403    4.6360   -0.4273 H   0  0  0  0  0  0  0  0  0  0  0  0
    6.6479    2.4262   -3.0785 H   0  0  0  0  0  0  0  0  0  0  0  0
    7.4304    0.7140   -1.4387 H   0  0  0  0  0  0  0  0  0  0  0  0
   10.4225    5.2342   -3.3887 H   0  0  0  0  0  0  0  0  0  0  0  0
    9.5760    5.9735   -1.1546 H   0  0  0  0  0  0  0  0  0  0  0  0
    7.9596    5.4950   -3.0071 H   0  0  0  0  0  0  0  0  0  0  0  0
   10.5892    0.6958   -0.7870 H   0  0  0  0  0  0  0  0  0  0  0  0
   12.6088    4.2972   -0.5585 H   0  0  0  0  0  0  0  0  0  0  0  0
   12.9972    3.1991   -2.7618 H   0  0  0  0  0  0  0  0  0  0  0  0
   13.9528    0.2614   -1.0891 H   0  0  0  0  0  0  0  0  0  0  0  0
   13.5941    1.4285    1.0869 H   0  0  0  0  0  0  0  0  0  0  0  0
   15.8921    3.9334   -0.1334 H   0  0  0  0  0  0  0  0  0  0  0  0
   17.4546    0.0000    0.4696 H   0  0  0  0  0  0  0  0  0  0  0  0
   16.4170    1.3575    2.2860 H   0  0  0  0  0  0  0  0  0  0  0  0
   18.1431    2.8503   -2.4922 H   0  0  0  0  0  0  0  0  0  0  0  0
   15.8358    2.9129   -3.4499 H   0  0  0  0  0  0  0  0  0  0  0  0
   16.8588    0.7248   -2.7980 H   0  0  0  0  0  0  0  0  0  0  0  0
   18.7079    3.9406    1.6339 H   0  0  0  0  0  0  0  0  0  0  0  0
   19.8350    2.4480   -0.0587 H   0  0  0  0  0  0  0  0  0  0  0  0
   21.0595    2.1849    2.8570 H   0  0  0  0  0  0  0  0  0  0  0  0
  1  2  2  0  0  0  0
  1  3  1  1  0  0  0
  1  4  1  0  0  0  0
  2  5  1  0  0  0  0
  2 17  1  6  0  0  0
  3 18  1  1  0  0  0
  3 19  1  1  0  0  0
  3 20  1  0  0  0  0
  4 21  1  1  0  0  0
  4 22  1  6  0  0  0
  4 23  1  0  0  0  0
  5  6  1  6  0  0  0
  5 24  1  1  0  0  0
  5 25  1  0  0  0  0
  6  7  1  0  0  0  0
  6 26  1  6  0  0  0
  6 27  1  0  0  0  0
  7  8  1  0  0  0  0
  7  9  2  0  0  0  0
  8 28  1  6  0  0  0
  8 29  1  1  0  0  0
  8 30  1  0  0  0  0
  9 10  1  0  0  0  0
  9 31  1  0  0  0  0
 10 11  1  0  0  0  0
 10 32  1  1  0  0  0
 10 33  1  6  0  0  0
 11 12  1  0  0  0  0
 11 34  1  6  0  0  0
 11 35  1  1  0  0  0
 12 13  1  1  0  0  0
 12 14  1  6  0  0  0
 12 36  1  0  0  0  0
 13 15  1  0  0  0  0
 13 37  1  0  0  0  0
 13 38  1  1  0  0  0
 14 39  1  0  0  0  0
 14 40  1  6  0  0  0
 14 41  1  0  0  0  0
 15 16  1  1  0  0  0
 15 42  1  0  0  0  0
 15 43  1  6  0  0  0
 16 44  1  0  0  0  0
M  END
>  <Formula> (138)
C15H28O

>  <Name> (138)
3,7,11-TRIMETHYL-6(E),10-DODECADIEN-1-OL

>  <Compound classification> (138)
Sesquiterpene

>  <Microorganism> (138)
Corynebacterium sp.

>  <Microorganism classification> (138)
Bac+

>  <MIC> (138)
20

>  <Method abbreviation> (138)
ADlT

>  <Ref-Nr> (138)
6134

>  <Marker> (138)
0

>  <Method> (138)
Agar dilution test; Inoculum size: 10E8-10E9; Medium: brain-heart infusion medium + dried broth + yeast extract powder (acne bacteria cultured in GAM medium = Gifu aerobic medium); pH: ---; Incubation-temperature: 30 degrees Centigrade; Incubation-time: 48h; Solubility enhancer: ethanol, dimethylsulfoxide

>  <Reference> (138)
Harada, M., Matsuda, H., Yamamoto, T.: Perfume Containing (6E) -2,3-Dihydrofarnesol; US 5,753,610 (1998)

>  <mol_id> (138)
1159

>  <MolWeight> (138)
224.38

>  <Nickname> (138)
(6E)-2,3-Dihydrofarnesol

$$$$

csChmFindW11180110282D

 44 43  0  0  0  0  0  0  0  0999 V2000
    2.9312    2.7591    1.0430 C   0  0  0  0  0  0  0  0  0  0  0  0
    4.2190    2.3217   -0.2182 C   0  0  0  0  0  0  0  0  0  0  0  0
    3.3056    4.0645    2.5757 C   0  0  0  0  0  0  0  0  0  0  0  0
    1.0477    1.9583    0.9862 C   0  0  0  0  0  0  0  0  0  0  0  0
    6.1112    3.0986   -0.2098 C   0  0  0  0  0  0  0  0  0  0  0  0
    7.3206    2.2399   -1.6920 C   0  0  0  0  0  0  0  0  0  0  0  0
    9.1915    3.0977   -1.7368 C   0  0  0  0  0  0  0  0  0  0  0  0
    9.2858    5.0467   -2.3581 C   0  0  0  0  0  0  0  0  0  0  0  0
   10.7040    2.1432   -1.2451 C   0  0  0  0  0  0  0  0  0  0  0  0
   12.5950    2.9245   -1.2860 C   0  0  0  0  0  0  0  0  0  0  0  0
   13.9924    1.6457   -0.3957 C   0  0  0  0  0  0  0  0  0  0  0  0
   15.9477    2.4189   -0.4889 C   0  0  0  0  0  0  0  0  0  0  0  0
   17.1588    1.4482    0.9285 C   0  0  0  0  0  0  0  0  0  0  0  0
   16.7400    2.2144   -2.4145 C   0  0  0  0  0  0  0  0  0  0  0  0
   18.9691    2.4660    1.2282 C   0  0  0  0  0  0  0  0  0  0  0  0
   19.9119    1.5359    2.6748 O   0  0  0  0  0  0  0  0  0  0  0  0
    3.9004    1.3425   -1.3393 H   0  0  0  0  0  0  0  0  0  0  0  0
    4.3915    3.4891    3.5141 H   0  0  0  0  0  0  0  0  0  0  0  0
    2.0349    4.3345    3.4079 H   0  0  0  0  0  0  0  0  0  0  0  0
    3.8239    5.4115    2.0216 H   0  0  0  0  0  0  0  0  0  0  0  0
    0.7484    1.2137    2.3067 H   0  0  0  0  0  0  0  0  0  0  0  0
    0.8845    0.9635   -0.1822 H   0  0  0  0  0  0  0  0  0  0  0  0
    0.0000    3.0820    0.8200 H   0  0  0  0  0  0  0  0  0  0  0  0
    6.7614    2.8758    1.1831 H   0  0  0  0  0  0  0  0  0  0  0  0
    6.0403    4.6360   -0.4273 H   0  0  0  0  0  0  0  0  0  0  0  0
    6.6479    2.4262   -3.0785 H   0  0  0  0  0  0  0  0  0  0  0  0
    7.4304    0.7140   -1.4387 H   0  0  0  0  0  0  0  0  0  0  0  0
   10.4225    5.2342   -3.3887 H   0  0  0  0  0  0  0  0  0  0  0  0
    9.5760    5.9735   -1.1546 H   0  0  0  0  0  0  0  0  0  0  0  0
    7.9596    5.4950   -3.0071 H   0  0  0  0  0  0  0  0  0  0  0  0
   10.5892    0.6958   -0.7870 H   0  0  0  0  0  0  0  0  0  0  0  0
   12.6088    4.2972   -0.5585 H   0  0  0  0  0  0  0  0  0  0  0  0
   12.9972    3.1991   -2.7618 H   0  0  0  0  0  0  0  0  0  0  0  0
   13.9528    0.2614   -1.0891 H   0  0  0  0  0  0  0  0  0  0  0  0
   13.5941    1.4285    1.0869 H   0  0  0  0  0  0  0  0  0  0  0  0
   15.8921    3.9334   -0.1334 H   0  0  0  0  0  0  0  0  0  0  0  0
   17.4546    0.0000    0.4696 H   0  0  0  0  0  0  0  0  0  0  0  0
   16.4170    1.3575    2.2860 H   0  0  0  0  0  0  0  0  0  0  0  0
   18.1431    2.8503   -2.4922 H   0  0  0  0  0  0  0  0  0  0  0  0
   15.8358    2.9129   -3.4499 H   0  0  0  0  0  0  0  0  0  0  0  0
   16.8588    0.7248   -2.7980 H   0  0  0  0  0  0  0  0  0  0  0  0
   18.7079    3.9406    1.6339 H   0  0  0  0  0  0  0  0  0  0  0  0
   19.8350    2.4480   -0.0587 H   0  0  0  0  0  0  0  0  0  0  0  0
   21.0595    2.1849    2.8570 H   0  0  0  0  0  0  0  0  0  0  0  0
  1  2  2  0  0  0  0
  1  3  1  1  0  0  0
  1  4  1  0  0  0  0
  2  5  1  0  0  0  0
  2 17  1  6  0  0  0
  3 18  1  1  0  0  0
  3 19  1  1  0  0  0
  3 20  1  0  0  0  0
  4 21  1  1  0  0  0
  4 22  1  6  0  0  0
  4 23  1  0  0  0  0
  5  6  1  6  0  0  0
  5 24  1  1  0  0  0
  5 25  1  0  0  0  0
  6  7  1  0  0  0  0
  6 26  1  6  0  0  0
  6 27  1  0  0  0  0
  7  8  1  0  0  0  0
  7  9  2  0  0  0  0
  8 28  1  6  0  0  0
  8 29  1  1  0  0  0
  8 30  1  0  0  0  0
  9 10  1  0  0  0  0
  9 31  1  0  0  0  0
 10 11  1  0  0  0  0
 10 32  1  1  0  0  0
 10 33  1  6  0  0  0
 11 12  1  0  0  0  0
 11 34  1  6  0  0  0
 11 35  1  1  0  0  0
 12 13  1  1  0  0  0
 12 14  1  6  0  0  0
 12 36  1  0  0  0  0
 13 15  1  0  0  0  0
 13 37  1  0  0  0  0
 13 38  1  1  0  0  0
 14 39  1  0  0  0  0
 14 40  1  6  0  0  0
 14 41  1  0  0  0  0
 15 16  1  1  0  0  0
 15 42  1  0  0  0  0
 15 43  1  6  0  0  0
 16 44  1  0  0  0  0
M  END
>  <Formula> (139)
C15H28O

>  <Name> (139)
3,7,11-TRIMETHYL-6(E),10-DODECADIEN-1-OL

>  <Compound classification> (139)
Sesquiterpene

>  <Microorganism> (139)
Propionibacterium acnes

>  <Publication strain name> (139)
'Acne bacteria' suggested as P. acnes

>  <Microorganism classification> (139)
Bac+

>  <MIC> (139)
10

>  <Method abbreviation> (139)
ADlT

>  <Ref-Nr> (139)
6134

>  <Marker> (139)
0

>  <Method> (139)
Agar dilution test; Inoculum size: 10E8-10E9; Medium: brain-heart infusion medium + dried broth + yeast extract powder (acne bacteria cultured in GAM medium = Gifu aerobic medium); pH: ---; Incubation-temperature: 30 degrees Centigrade; Incubation-time: 48h; Solubility enhancer: ethanol, dimethylsulfoxide

>  <Reference> (139)
Harada, M., Matsuda, H., Yamamoto, T.: Perfume Containing (6E) -2,3-Dihydrofarnesol; US 5,753,610 (1998)

>  <mol_id> (139)
1159

>  <MolWeight> (139)
224.38

>  <Nickname> (139)
(6E)-2,3-Dihydrofarnesol

$$$$

csChmFindW11180110282D

 37 38  0  0  0  0  0  0  0  0999 V2000
    9.8127    7.7069    2.5628 C   0  0  0  0  0  0  0  0  0  0  0  0
   11.5933    6.6576    2.3889 N   0  0  0  0  0  0  0  0  0  0  0  0
    8.1971    6.5258    2.5242 C   0  0  0  0  0  0  0  0  0  0  0  0
    8.8153    4.4412    2.2239 C   0  0  0  0  0  0  0  0  0  0  0  0
   11.0372    4.5379    2.2487 C   0  0  0  0  0  0  0  0  0  0  0  0
   12.1357    4.3818    0.2887 C   0  0  0  0  0  0  0  0  0  0  0  0
   12.5519    6.5718    0.4963 C   0  0  0  0  0  0  0  0  0  0  0  0
    9.7642    9.8085    2.8524 C   0  0  0  0  0  0  0  0  0  0  0  0
    8.3067   10.8525    2.9509 O   0  0  0  0  0  0  0  0  0  0  0  0
   11.5079   10.7115    3.0392 O   0  0  0  0  0  0  0  0  0  0  0  0
   13.3784    7.7913   -0.4728 O   0  0  0  0  0  0  0  0  0  0  0  0
    2.4726    5.5926    2.9702 C   0  0  0  0  0  0  0  0  0  0  0  0
    4.6011    5.0302    2.7190 C   0  0  0  0  0  0  0  0  0  0  0  0
    0.6866    3.6216    0.6658 C   0  0  0  0  0  0  0  0  0  0  0  0
    0.4431    1.8777    0.0285 N   0  0  0  0  0  0  0  0  0  0  0  0
    1.0873    4.0697    2.6213 N   0  0  0  0  0  0  0  0  0  0  0  0
    5.9142    7.2204    2.7815 S   0  0  0  0  0  0  0  0  0  0  0  0
   13.2759    0.9543    0.5084 C   0  0  0  0  0  0  0  0  0  0  0  0
   13.8940    3.0592    0.3160 C   0  0  0  0  0  0  0  0  0  0  0  0
   15.0559    3.3308   -1.3543 O   0  0  0  0  0  0  0  0  0  0  0  0
    8.2512    3.8633    0.8180 H   0  0  0  0  0  0  0  0  0  0  0  0
    8.2771    3.4943    3.4249 H   0  0  0  0  0  0  0  0  0  0  0  0
   11.6858    3.6721    3.4489 H   0  0  0  0  0  0  0  0  0  0  0  0
   11.1878    4.0677   -0.9824 H   0  0  0  0  0  0  0  0  0  0  0  0
   11.2868   12.0939    3.2082 H   0  0  0  0  0  0  0  0  0  0  0  0
    2.1361    6.8527    1.9829 H   0  0  0  0  0  0  0  0  0  0  0  0
    2.2441    6.0893    4.5128 H   0  0  0  0  0  0  0  0  0  0  0  0
    4.8303    4.2545    1.3153 H   0  0  0  0  0  0  0  0  0  0  0  0
    5.0585    4.0258    3.9038 H   0  0  0  0  0  0  0  0  0  0  0  0
    0.5106    4.9675   -0.2203 H   0  0  0  0  0  0  0  0  0  0  0  0
    0.0000    1.8051   -1.3449 H   0  0  0  0  0  0  0  0  0  0  0  0
    1.2853    2.9193    3.4862 H   0  0  0  0  0  0  0  0  0  0  0  0
   14.5813    0.0000    0.4393 H   0  0  0  0  0  0  0  0  0  0  0  0
   12.2734    0.5392   -0.6918 H   0  0  0  0  0  0  0  0  0  0  0  0
   12.5264    0.7179    1.9210 H   0  0  0  0  0  0  0  0  0  0  0  0
   14.8873    3.4750    1.5484 H   0  0  0  0  0  0  0  0  0  0  0  0
   14.2916    2.9667   -2.4677 H   0  0  0  0  0  0  0  0  0  0  0  0
  1  2  1  0  0  0  0
  1  3  2  0  0  0  0
  1  8  1  0  0  0  0
  2  5  1  0  0  0  0
  2  7  1  6  0  0  0
  3  4  1  0  0  0  0
  3 17  1  0  0  0  0
  4  5  1  0  0  0  0
  4 21  1  6  0  0  0
  4 22  1  1  0  0  0
  5  6  1  6  0  0  0
  5 23  1  1  0  0  0
  6  7  1  0  0  0  0
  6 19  1  0  0  0  0
  6 24  1  6  0  0  0
  7 11  2  0  0  0  0
  8  9  2  0  0  0  0
  8 10  1  0  0  0  0
 10 25  1  0  0  0  0
 12 13  1  0  0  0  0
 12 16  1  0  0  0  0
 12 26  1  6  0  0  0
 12 27  1  1  0  0  0
 13 17  1  0  0  0  0
 13 28  1  6  0  0  0
 13 29  1  1  0  0  0
 14 15  2  0  0  0  0
 14 16  1  1  0  0  0
 14 30  1  6  0  0  0
 15 31  1  6  0  0  0
 16 32  1  1  0  0  0
 18 19  1  0  0  0  0
 18 33  1  0  0  0  0
 18 34  1  6  0  0  0
 18 35  1  1  0  0  0
 19 20  1  6  0  0  0
 19 36  1  1  0  0  0
 20 37  1  6  0  0  0
M  END
>  <Formula> (140)
C12H17N3O4S

>  <Name> (140)
(5R-(5-ALPHA,6-ALPHA(R*)))-6-(1-HYDROXYETHYL)-3-((2-((IMINOMETHYL)AMINO)ETHYL)THIO)-7-OXO-1-AZABICYCLO(3.2.0)HEPT-2-ENE-2-CARBOXYLIC ACID

>  <CAS-Nr> (140)
64221-86-9

>  <EINECS> (140)
264-734-5

>  <LD50-rat-oral> (140)
>5000

>  <Compound classification> (140)
AB-bLac

>  <Microorganism> (140)
Staphylococcus aureus

>  <Microorganism type> (140)
antibiotica resistant

>  <Microorganism classification> (140)
Bac+

>  <MIC> (140)
32

>  <Method abbreviation> (140)
SDT

>  <Ref-Nr> (140)
6176

>  <Marker> (140)
0

>  <Method> (140)
Serial dilution test; Inoculum size: 5x10E5 cfu/ml; Medium: Mueller Hinton bouillon; pH: 7.2; Incubation-temperature: 35 degrees Centigrade; Incubation-time: 5-24h; Solubility enhancer: DMSO

>  <Reference> (140)
Boggs, A., Trias, J., Hecker, S.: Potentiators of Antibacterial Agents; US 5,883,074 (1999)

>  <mol_id> (140)
2161

>  <LD50-mouse-oral> (140)
>5000

>  <MolWeight> (140)
299.34

>  <Nickname> (140)
Imipenem

>  <other Names> (140)
Primaxin, (5R,6S)-3-((2-(Formimidoylamino)ethyl)thio)-6-((R)-1-hydroxyethyl)-7-oxo-1-azabicyclo(3.2.0)hept-2-ene-2-carboxylic acid monohydrate, Imipenem, MK 0787, N-Formimidoylthienamycin, MK-787

>  <LD50-mou-iv> (140)
1660

$$$$

csChmFindW11180110282D

 52 51  0  0  0  0  0  0  0  0999 V2000
   17.3424   12.4128    1.5364 C   0  0  0  0  0  0  0  0  0  0  0  0
   19.1245   11.1772    1.7763 C   0  0  0  0  0  0  0  0  0  0  0  0
   15.5340   11.2318    1.8363 C   0  0  0  0  0  0  0  0  0  0  0  0
   20.9139   12.3684    1.6590 C   0  0  0  0  0  0  0  0  0  0  0  0
   13.7486   12.4479    1.5349 C   0  0  0  0  0  0  0  0  0  0  0  0
   21.2363   14.0011    2.2850 O   0  0  0  0  0  0  0  0  0  0  0  0
   22.4019   11.4747    0.7359 O   0  0  0  0  0  0  0  0  0  0  0  0
   11.9337   11.2813    1.8526 C   0  0  0  0  0  0  0  0  0  0  0  0
   10.1511   12.4917    1.5158 C   0  0  0  0  0  0  0  0  0  0  0  0
    8.3341   11.3327    1.8595 C   0  0  0  0  0  0  0  0  0  0  0  0
    6.5679   12.4788    1.5063 C   0  0  0  0  0  0  0  0  0  0  0  0
    4.7935   11.8940    1.9780 C   0  0  0  0  0  0  0  0  0  0  0  0
    4.3778   10.0343    2.9436 C   0  0  0  0  0  0  0  0  0  0  0  0
    2.2978    9.5515    3.0057 C   0  0  0  0  0  0  0  0  0  0  0  0
    1.5600    8.1446    4.0964 C   0  0  0  0  0  0  0  0  0  0  0  0
    2.7212    6.9121    5.3964 C   0  0  0  0  0  0  0  0  0  0  0  0
    1.5561    5.2698    6.2381 C   0  0  0  0  0  0  0  0  0  0  0  0
    2.7747    4.0370    7.5613 C   0  0  0  0  0  0  0  0  0  0  0  0
    1.6077    2.4108    8.4280 C   0  0  0  0  0  0  0  0  0  0  0  0
    2.8109    1.1876    9.7583 C   0  0  0  0  0  0  0  0  0  0  0  0
   17.3303   13.0637    0.0571 H   0  0  0  0  0  0  0  0  0  0  0  0
   17.3882   13.6350    2.5949 H   0  0  0  0  0  0  0  0  0  0  0  0
   19.1701   10.0189    0.6495 H   0  0  0  0  0  0  0  0  0  0  0  0
   19.1172   10.4572    3.2262 H   0  0  0  0  0  0  0  0  0  0  0  0
   15.5265   10.6185    3.3320 H   0  0  0  0  0  0  0  0  0  0  0  0
   15.5206    9.9846    0.8081 H   0  0  0  0  0  0  0  0  0  0  0  0
   13.7508   13.0511    0.0352 H   0  0  0  0  0  0  0  0  0  0  0  0
   13.7707   13.7034    2.5531 H   0  0  0  0  0  0  0  0  0  0  0  0
   23.5232   12.3117    0.7284 H   0  0  0  0  0  0  0  0  0  0  0  0
   11.9195   10.7012    3.3614 H   0  0  0  0  0  0  0  0  0  0  0  0
   11.9228   10.0108    0.8532 H   0  0  0  0  0  0  0  0  0  0  0  0
   10.1580   13.0559    0.0010 H   0  0  0  0  0  0  0  0  0  0  0  0
   10.1700   13.7721    2.5020 H   0  0  0  0  0  0  0  0  0  0  0  0
    8.3283   10.7754    3.3811 H   0  0  0  0  0  0  0  0  0  0  0  0
    8.3281   10.0343    0.8888 H   0  0  0  0  0  0  0  0  0  0  0  0
    6.7843   13.8864    0.8026 H   0  0  0  0  0  0  0  0  0  0  0  0
    3.5389   12.8166    1.6664 H   0  0  0  0  0  0  0  0  0  0  0  0
    4.9710   10.0816    4.4563 H   0  0  0  0  0  0  0  0  0  0  0  0
    5.1730    8.8378    2.1831 H   0  0  0  0  0  0  0  0  0  0  0  0
    1.3500   10.4196    2.0728 H   0  0  0  0  0  0  0  0  0  0  0  0
    0.0000    7.8474    4.0688 H   0  0  0  0  0  0  0  0  0  0  0  0
    3.3196    7.8208    6.5986 H   0  0  0  0  0  0  0  0  0  0  0  0
    3.9928    6.3149    4.5887 H   0  0  0  0  0  0  0  0  0  0  0  0
    0.9608    4.3589    5.0431 H   0  0  0  0  0  0  0  0  0  0  0  0
    0.2964    5.8637    7.0585 H   0  0  0  0  0  0  0  0  0  0  0  0
    3.3875    4.9527    8.7441 H   0  0  0  0  0  0  0  0  0  0  0  0
    4.0237    3.4262    6.7366 H   0  0  0  0  0  0  0  0  0  0  0  0
    1.0029    1.4917    7.2433 H   0  0  0  0  0  0  0  0  0  0  0  0
    0.3521    3.0237    9.2414 H   0  0  0  0  0  0  0  0  0  0  0  0
    1.9229    0.0000   10.3822 H   0  0  0  0  0  0  0  0  0  0  0  0
    3.3984    2.0719   10.9675 H   0  0  0  0  0  0  0  0  0  0  0  0
    4.0488    0.5336    8.9647 H   0  0  0  0  0  0  0  0  0  0  0  0
  1  2  1  0  0  0  0
  1  3  1  0  0  0  0
  1 21  1  6  0  0  0
  1 22  1  1  0  0  0
  2  4  1  0  0  0  0
  2 23  1  6  0  0  0
  2 24  1  1  0  0  0
  3  5  1  0  0  0  0
  3 25  1  1  0  0  0
  3 26  1  6  0  0  0
  4  6  2  0  0  0  0
  4  7  1  6  0  0  0
  5  8  1  0  0  0  0
  5 27  1  6  0  0  0
  5 28  1  1  0  0  0
  7 29  1  0  0  0  0
  8  9  1  0  0  0  0
  8 30  1  1  0  0  0
  8 31  1  6  0  0  0
  9 10  1  0  0  0  0
  9 32  1  6  0  0  0
  9 33  1  1  0  0  0
 10 11  1  0  0  0  0
 10 34  1  1  0  0  0
 10 35  1  6  0  0  0
 11 12  2  0  0  0  0
 11 36  1  0  0  0  0
 12 13  1  1  0  0  0
 12 37  1  0  0  0  0
 13 14  1  0  0  0  0
 13 38  1  1  0  0  0
 13 39  1  6  0  0  0
 14 15  2  0  0  0  0
 14 40  1  6  0  0  0
 15 16  1  1  0  0  0
 15 41  1  0  0  0  0
 16 17  1  0  0  0  0
 16 42  1  1  0  0  0
 16 43  1  6  0  0  0
 17 18  1  1  0  0  0
 17 44  1  6  0  0  0
 17 45  1  1  0  0  0
 18 19  1  0  0  0  0
 18 46  1  1  0  0  0
 18 47  1  6  0  0  0
 19 20  1  1  0  0  0
 19 48  1  6  0  0  0
 19 49  1  1  0  0  0
 20 50  1  0  0  0  0
 20 51  1  1  0  0  0
 20 52  1  6  0  0  0
M  END
>  <Formula> (141)
C18H32O2

>  <Name> (141)
(Z,Z)-9,12-OCTADECADIENOIC ACID

>  <CAS-Nr> (141)
60-33-3

>  <EINECS> (141)
207-334-8

>  <21 CFR> (141)
182.5065, 184.1065

>  <Compound classification> (141)
Ali-COOH

>  <Microorganism> (141)
Microsporum canis

>  <Microorganism classification> (141)
fungi

>  <MMC> (141)
14000

>  <Annotation> (141)
MMC: 100% growth inhibition

>  <Method abbreviation> (141)
ADlT

>  <Ref-Nr> (141)
6191

>  <Marker> (141)
0

>  <Method> (141)
Agar dilution test; Inoculum size: 5 mm 12d day old mycelial piece; Medium: Sabouraud glucose agar; pH: ---; Incubation-temperature: 28 degrees Centigrade; Incubation-time: 12d; Solubility enhancer: ultrasonic; %growth inhibition was determined

>  <Reference> (141)
Garg, A.P., Mueller, J.: Fungitoxicity of Fatty Acids Against Dermatophytes; Mycoses 36, 51-63 (1993)

>  <mol_id> (141)
981

>  <LD50-mouse-oral> (141)
>50000

>  <LD50-mou-ip> (141)
280

>  <MolWeight> (141)
280.44

>  <Nickname> (141)
Linoleic acid

$$$$

csChmFindW11180110282D

 52 51  0  0  0  0  0  0  0  0999 V2000
   17.3424   12.4128    1.5364 C   0  0  0  0  0  0  0  0  0  0  0  0
   19.1245   11.1772    1.7763 C   0  0  0  0  0  0  0  0  0  0  0  0
   15.5340   11.2318    1.8363 C   0  0  0  0  0  0  0  0  0  0  0  0
   20.9139   12.3684    1.6590 C   0  0  0  0  0  0  0  0  0  0  0  0
   13.7486   12.4479    1.5349 C   0  0  0  0  0  0  0  0  0  0  0  0
   21.2363   14.0011    2.2850 O   0  0  0  0  0  0  0  0  0  0  0  0
   22.4019   11.4747    0.7359 O   0  0  0  0  0  0  0  0  0  0  0  0
   11.9337   11.2813    1.8526 C   0  0  0  0  0  0  0  0  0  0  0  0
   10.1511   12.4917    1.5158 C   0  0  0  0  0  0  0  0  0  0  0  0
    8.3341   11.3327    1.8595 C   0  0  0  0  0  0  0  0  0  0  0  0
    6.5679   12.4788    1.5063 C   0  0  0  0  0  0  0  0  0  0  0  0
    4.7935   11.8940    1.9780 C   0  0  0  0  0  0  0  0  0  0  0  0
    4.3778   10.0343    2.9436 C   0  0  0  0  0  0  0  0  0  0  0  0
    2.2978    9.5515    3.0057 C   0  0  0  0  0  0  0  0  0  0  0  0
    1.5600    8.1446    4.0964 C   0  0  0  0  0  0  0  0  0  0  0  0
    2.7212    6.9121    5.3964 C   0  0  0  0  0  0  0  0  0  0  0  0
    1.5561    5.2698    6.2381 C   0  0  0  0  0  0  0  0  0  0  0  0
    2.7747    4.0370    7.5613 C   0  0  0  0  0  0  0  0  0  0  0  0
    1.6077    2.4108    8.4280 C   0  0  0  0  0  0  0  0  0  0  0  0
    2.8109    1.1876    9.7583 C   0  0  0  0  0  0  0  0  0  0  0  0
   17.3303   13.0637    0.0571 H   0  0  0  0  0  0  0  0  0  0  0  0
   17.3882   13.6350    2.5949 H   0  0  0  0  0  0  0  0  0  0  0  0
   19.1701   10.0189    0.6495 H   0  0  0  0  0  0  0  0  0  0  0  0
   19.1172   10.4572    3.2262 H   0  0  0  0  0  0  0  0  0  0  0  0
   15.5265   10.6185    3.3320 H   0  0  0  0  0  0  0  0  0  0  0  0
   15.5206    9.9846    0.8081 H   0  0  0  0  0  0  0  0  0  0  0  0
   13.7508   13.0511    0.0352 H   0  0  0  0  0  0  0  0  0  0  0  0
   13.7707   13.7034    2.5531 H   0  0  0  0  0  0  0  0  0  0  0  0
   23.5232   12.3117    0.7284 H   0  0  0  0  0  0  0  0  0  0  0  0
   11.9195   10.7012    3.3614 H   0  0  0  0  0  0  0  0  0  0  0  0
   11.9228   10.0108    0.8532 H   0  0  0  0  0  0  0  0  0  0  0  0
   10.1580   13.0559    0.0010 H   0  0  0  0  0  0  0  0  0  0  0  0
   10.1700   13.7721    2.5020 H   0  0  0  0  0  0  0  0  0  0  0  0
    8.3283   10.7754    3.3811 H   0  0  0  0  0  0  0  0  0  0  0  0
    8.3281   10.0343    0.8888 H   0  0  0  0  0  0  0  0  0  0  0  0
    6.7843   13.8864    0.8026 H   0  0  0  0  0  0  0  0  0  0  0  0
    3.5389   12.8166    1.6664 H   0  0  0  0  0  0  0  0  0  0  0  0
    4.9710   10.0816    4.4563 H   0  0  0  0  0  0  0  0  0  0  0  0
    5.1730    8.8378    2.1831 H   0  0  0  0  0  0  0  0  0  0  0  0
    1.3500   10.4196    2.0728 H   0  0  0  0  0  0  0  0  0  0  0  0
    0.0000    7.8474    4.0688 H   0  0  0  0  0  0  0  0  0  0  0  0
    3.3196    7.8208    6.5986 H   0  0  0  0  0  0  0  0  0  0  0  0
    3.9928    6.3149    4.5887 H   0  0  0  0  0  0  0  0  0  0  0  0
    0.9608    4.3589    5.0431 H   0  0  0  0  0  0  0  0  0  0  0  0
    0.2964    5.8637    7.0585 H   0  0  0  0  0  0  0  0  0  0  0  0
    3.3875    4.9527    8.7441 H   0  0  0  0  0  0  0  0  0  0  0  0
    4.0237    3.4262    6.7366 H   0  0  0  0  0  0  0  0  0  0  0  0
    1.0029    1.4917    7.2433 H   0  0  0  0  0  0  0  0  0  0  0  0
    0.3521    3.0237    9.2414 H   0  0  0  0  0  0  0  0  0  0  0  0
    1.9229    0.0000   10.3822 H   0  0  0  0  0  0  0  0  0  0  0  0
    3.3984    2.0719   10.9675 H   0  0  0  0  0  0  0  0  0  0  0  0
    4.0488    0.5336    8.9647 H   0  0  0  0  0  0  0  0  0  0  0  0
  1  2  1  0  0  0  0
  1  3  1  0  0  0  0
  1 21  1  6  0  0  0
  1 22  1  1  0  0  0
  2  4  1  0  0  0  0
  2 23  1  6  0  0  0
  2 24  1  1  0  0  0
  3  5  1  0  0  0  0
  3 25  1  1  0  0  0
  3 26  1  6  0  0  0
  4  6  2  0  0  0  0
  4  7  1  6  0  0  0
  5  8  1  0  0  0  0
  5 27  1  6  0  0  0
  5 28  1  1  0  0  0
  7 29  1  0  0  0  0
  8  9  1  0  0  0  0
  8 30  1  1  0  0  0
  8 31  1  6  0  0  0
  9 10  1  0  0  0  0
  9 32  1  6  0  0  0
  9 33  1  1  0  0  0
 10 11  1  0  0  0  0
 10 34  1  1  0  0  0
 10 35  1  6  0  0  0
 11 12  2  0  0  0  0
 11 36  1  0  0  0  0
 12 13  1  1  0  0  0
 12 37  1  0  0  0  0
 13 14  1  0  0  0  0
 13 38  1  1  0  0  0
 13 39  1  6  0  0  0
 14 15  2  0  0  0  0
 14 40  1  6  0  0  0
 15 16  1  1  0  0  0
 15 41  1  0  0  0  0
 16 17  1  0  0  0  0
 16 42  1  1  0  0  0
 16 43  1  6  0  0  0
 17 18  1  1  0  0  0
 17 44  1  6  0  0  0
 17 45  1  1  0  0  0
 18 19  1  0  0  0  0
 18 46  1  1  0  0  0
 18 47  1  6  0  0  0
 19 20  1  1  0  0  0
 19 48  1  6  0  0  0
 19 49  1  1  0  0  0
 20 50  1  0  0  0  0
 20 51  1  1  0  0  0
 20 52  1  6  0  0  0
M  END
>  <Formula> (142)
C18H32O2

>  <Name> (142)
(Z,Z)-9,12-OCTADECADIENOIC ACID

>  <CAS-Nr> (142)
60-33-3

>  <EINECS> (142)
207-334-8

>  <21 CFR> (142)
182.5065, 184.1065

>  <Compound classification> (142)
Ali-COOH

>  <Microorganism> (142)
Microsporum gypseum

>  <Microorganism classification> (142)
fungi

>  <MMC> (142)
28000

>  <Annotation> (142)
MMC: 100% growth inhibition

>  <Method abbreviation> (142)
ADlT

>  <Ref-Nr> (142)
6191

>  <Marker> (142)
0

>  <Method> (142)
Agar dilution test; Inoculum size: 5 mm 12d day old mycelial piece; Medium: Sabouraud glucose agar; pH: ---; Incubation-temperature: 28 degrees Centigrade; Incubation-time: 12d; Solubility enhancer: ultrasonic; %growth inhibition was determined

>  <Reference> (142)
Garg, A.P., Mueller, J.: Fungitoxicity of Fatty Acids Against Dermatophytes; Mycoses 36, 51-63 (1993)

>  <mol_id> (142)
981

>  <LD50-mouse-oral> (142)
>50000

>  <LD50-mou-ip> (142)
280

>  <MolWeight> (142)
280.44

>  <Nickname> (142)
Linoleic acid

$$$$

csChmFindW11180110282D

 23 24  0  0  0  0  0  0  0  0999 V2000
    2.4905    4.7705    0.4650 C   0  0  0  0  0  0  0  0  0  0  0  0
    4.1146    4.1972   -0.5443 C   0  0  0  0  0  0  0  0  0  0  0  0
    2.5561    3.3720    1.9218 C   0  0  0  0  0  0  0  0  0  0  0  0
    0.9918    4.0172   -0.5516 C   0  0  0  0  0  0  0  0  0  0  0  0
    2.3873    6.6126    0.9254 C   0  0  0  0  0  0  0  0  0  0  0  0
    4.1313    2.1643   -0.4557 C   0  0  0  0  0  0  0  0  0  0  0  0
    5.1679    5.0892   -1.2663 O   0  0  0  0  0  0  0  0  0  0  0  0
    0.8807    2.2747   -0.4067 C   0  0  0  0  0  0  0  0  0  0  0  0
    2.4786    1.9686    0.5167 C   0  0  0  0  0  0  0  0  0  0  0  0
    5.7120    1.5459    0.4752 C   0  0  0  0  0  0  0  0  0  0  0  0
    4.0865    1.4286   -2.2483 C   0  0  0  0  0  0  0  0  0  0  0  0
    1.4130    3.3995    2.7676 H   0  0  0  0  0  0  0  0  0  0  0  0
    3.7397    3.3918    2.7046 H   0  0  0  0  0  0  0  0  0  0  0  0
    1.2715    6.8448    1.7906 H   0  0  0  0  0  0  0  0  0  0  0  0
    2.2203    7.4039   -0.2569 H   0  0  0  0  0  0  0  0  0  0  0  0
    3.5832    7.0308    1.5913 H   0  0  0  0  0  0  0  0  0  0  0  0
    0.0000    1.3610   -0.9655 H   0  0  0  0  0  0  0  0  0  0  0  0
    5.7233    0.1156    0.5120 H   0  0  0  0  0  0  0  0  0  0  0  0
    5.7654    2.0341    1.8168 H   0  0  0  0  0  0  0  0  0  0  0  0
    6.8803    1.9978   -0.2184 H   0  0  0  0  0  0  0  0  0  0  0  0
    4.1185    0.0000   -2.1937 H   0  0  0  0  0  0  0  0  0  0  0  0
    5.2231    1.8900   -2.9854 H   0  0  0  0  0  0  0  0  0  0  0  0
    2.8979    1.8344   -2.9343 H   0  0  0  0  0  0  0  0  0  0  0  0
  1  2  1  6  0  0  0
  1  3  1  1  0  0  0
  1  4  1  6  0  0  0
  1  5  1  0  0  0  0
  2  6  1  0  0  0  0
  2  7  2  0  0  0  0
  3  9  1  6  0  0  0
  3 12  1  1  0  0  0
  3 13  1  1  0  0  0
  4  8  1  0  0  0  0
  5 14  1  1  0  0  0
  5 15  1  6  0  0  0
  5 16  1  1  0  0  0
  6  9  1  1  0  0  0
  6 10  1  1  0  0  0
  6 11  1  6  0  0  0
  8  9  1  1  0  0  0
  8 17  1  0  0  0  0
 10 18  1  0  0  0  0
 10 19  1  1  0  0  0
 10 20  1  6  0  0  0
 11 21  1  0  0  0  0
 11 22  1  6  0  0  0
 11 23  1  6  0  0  0
M  END
>  <Formula> (143)
C10H16O

>  <Name> (143)
1,3,3-TRIMETHYL-BICYCLO[2.2.1]HEPTAN-2-ONE

>  <CAS-Nr> (143)
1195-79-5

>  <EINECS> (143)
214-804-6

>  <21 CFR> (143)
172.515 (d-Fenchone)

>  <LD50-rat-oral> (143)
6160

>  <Compound classification> (143)
Monoterpene

>  <Microorganism> (143)
Candida albicans

>  <Microorganism type> (143)
KEM H5

>  <Microorganism classification> (143)
yeast

>  <MIC> (143)
4200

>  <Method abbreviation> (143)
SDT

>  <Ref-Nr> (143)
6195

>  <Marker> (143)
0

>  <Method> (143)
Serial dilution test; Inoculum size: 10E6 cfu/ml; Medium: Isosensitest broth (bacteria), malt extract broth (Candida); pH: ---; Incubation-temperature: 37 degrees Centigrade; Incubation-time: 18-20h; Solubility enhancer: Tween 20

>  <Reference> (143)
Griffin, S.G., Wyllie, S.G., Markham, J.L., Leach, D.N.: The Role of Structure and Molecular Properties of Terpenoids in Determining Their Antimicrobial Activity; Flavour and Fragrance Journal 14, 322-32 (1999)

>  <mol_id> (143)
211

>  <MolWeight> (143)
152.23

>  <Nickname> (143)
Fenchone

$$$$

csChmFindW11180110282D

 31 31  0  0  0  0  0  0  0  0999 V2000
    3.0800    4.0917   -0.1470 C   0  0  0  0  0  0  0  0  0  0  0  0
    4.6269    5.2006   -0.8321 C   0  0  0  0  0  0  0  0  0  0  0  0
    1.3516    5.1500   -0.3299 C   0  0  0  0  0  0  0  0  0  0  0  0
    4.5943    7.0219    0.0473 C   0  0  0  0  0  0  0  0  0  0  0  0
    1.3366    6.6984    0.7163 C   0  0  0  0  0  0  0  0  0  0  0  0
    2.7903    7.9619    0.0013 C   0  0  0  0  0  0  0  0  0  0  0  0
    2.9430    2.3741   -1.2292 C   0  0  0  0  0  0  0  0  0  0  0  0
    6.2336    4.3355   -0.3088 O   0  0  0  0  0  0  0  0  0  0  0  0
    1.3870    1.2586   -0.5401 C   0  0  0  0  0  0  0  0  0  0  0  0
    4.6714    1.3158   -1.0464 C   0  0  0  0  0  0  0  0  0  0  0  0
    2.8659    9.6342    1.1580 C   0  0  0  0  0  0  0  0  0  0  0  0
    3.3066    3.7601    1.2848 H   0  0  0  0  0  0  0  0  0  0  0  0
    4.5047    5.3611   -2.3025 H   0  0  0  0  0  0  0  0  0  0  0  0
    0.1797    4.2893    0.0265 H   0  0  0  0  0  0  0  0  0  0  0  0
    1.2022    5.5281   -1.7757 H   0  0  0  0  0  0  0  0  0  0  0  0
    5.6207    7.8977   -0.6065 H   0  0  0  0  0  0  0  0  0  0  0  0
    5.0037    6.8431    1.4789 H   0  0  0  0  0  0  0  0  0  0  0  0
    1.6584    6.3402    2.1368 H   0  0  0  0  0  0  0  0  0  0  0  0
    0.0000    7.3644    0.5982 H   0  0  0  0  0  0  0  0  0  0  0  0
    2.4679    8.3431   -1.3993 H   0  0  0  0  0  0  0  0  0  0  0  0
    2.7147    2.7091   -2.6602 H   0  0  0  0  0  0  0  0  0  0  0  0
    7.1843    5.0371   -0.7417 H   0  0  0  0  0  0  0  0  0  0  0  0
    1.2769    0.0000   -1.3241 H   0  0  0  0  0  0  0  0  0  0  0  0
    0.1174    2.0222   -0.6691 H   0  0  0  0  0  0  0  0  0  0  0  0
    1.5993    0.9200    0.8922 H   0  0  0  0  0  0  0  0  0  0  0  0
    4.5831    0.0575   -1.8338 H   0  0  0  0  0  0  0  0  0  0  0  0
    4.9118    0.9775    0.3816 H   0  0  0  0  0  0  0  0  0  0  0  0
    5.8164    2.1213   -1.5477 H   0  0  0  0  0  0  0  0  0  0  0  0
    1.5523   10.3302    1.1321 H   0  0  0  0  0  0  0  0  0  0  0  0
    3.9134   10.5582    0.6480 H   0  0  0  0  0  0  0  0  0  0  0  0
    3.1919    9.2673    2.5616 H   0  0  0  0  0  0  0  0  0  0  0  0
  1  2  1  0  0  0  0
  1  3  1  0  0  0  0
  1  7  1  6  0  0  0
  1 12  1  1  0  0  0
  2  4  1  0  0  0  0
  2  8  1  0  0  0  0
  2 13  1  6  0  0  0
  3  5  1  1  0  0  0
  3 14  1  0  0  0  0
  3 15  1  6  0  0  0
  4  6  1  0  0  0  0
  4 16  1  0  0  0  0
  4 17  1  1  0  0  0
  5  6  1  0  0  0  0
  5 18  1  1  0  0  0
  5 19  1  0  0  0  0
  6 11  1  1  0  0  0
  6 20  1  6  0  0  0
  7  9  1  0  0  0  0
  7 10  1  0  0  0  0
  7 21  1  6  0  0  0
  8 22  1  0  0  0  0
  9 23  1  6  0  0  0
  9 24  1  0  0  0  0
  9 25  1  1  0  0  0
 10 26  1  6  0  0  0
 10 27  1  1  0  0  0
 10 28  1  0  0  0  0
 11 29  1  0  0  0  0
 11 30  1  0  0  0  0
 11 31  1  1  0  0  0
M  END
>  <Formula> (144)
C10H20O

>  <Name> (144)
(1R-1ALPHA,2BETA,5ALPHA)-5-METHYL-2-(1-METHYLETHYL)-CYCLOHEXANOL

>  <CAS-Nr> (144)
2216-51-5

>  <EINECS> (144)
218-690-9

>  <21 CFR> (144)
172.515, 182.20 (Menthol)

>  <LD50-rat-oral> (144)
3300

>  <Compound classification> (144)
Monoterpene

>  <Microorganism> (144)
Candida albicans

>  <Microorganism type> (144)
KEM H5

>  <Microorganism classification> (144)
yeast

>  <MIC> (144)
500

>  <Method abbreviation> (144)
SDT

>  <Ref-Nr> (144)
6195

>  <Marker> (144)
0

>  <Method> (144)
Serial dilution test; Inoculum size: 10E6 cfu/ml; Medium: Isosensitest broth (bacteria), malt extract broth (Candida); pH: ---; Incubation-temperature: 37 degrees Centigrade; Incubation-time: 18-20h; Solubility enhancer: Tween 20

>  <Reference> (144)
Griffin, S.G., Wyllie, S.G., Markham, J.L., Leach, D.N.: The Role of Structure and Molecular Properties of Terpenoids in Determining Their Antimicrobial Activity; Flavour and Fragrance Journal 14, 322-32 (1999)

>  <mol_id> (144)
710

>  <LD50-mouse-oral> (144)
3400

>  <LD50-mou-ip> (144)
6600

>  <MolWeight> (144)
156.26

>  <Nickname> (144)
l-Menthol

>  <other Names> (144)
(-)-Menthol, U.S.P. Menthol, Levomenthol

$$$$

csChmFindW11180110282D

 16 15  0  0  0  0  0  0  0  0999 V2000
    6.1027    3.0562    0.0279 C   0  0  0  0  0  0  0  0  0  0  0  0
    4.5092    2.1912    0.0271 C   0  0  0  0  0  0  0  0  0  0  0  0
    7.5772    2.2467    0.0190 C   0  0  0  0  0  0  0  0  0  0  0  0
    3.0341    3.0022    0.0360 C   0  0  0  0  0  0  0  0  0  0  0  0
    9.2077    3.1183    0.0168 C   0  0  0  0  0  0  0  0  0  0  0  0
    1.4142    2.1499    0.0353 C   0  0  0  0  0  0  0  0  0  0  0  0
    0.0000    2.7838    0.0460 O   0  0  0  0  0  0  0  0  0  0  0  0
    1.4690    0.4367    0.0213 O   0  0  0  0  0  0  0  0  0  0  0  0
    6.0552    4.4386    0.0365 H   0  0  0  0  0  0  0  0  0  0  0  0
    4.5470    0.8050    0.0185 H   0  0  0  0  0  0  0  0  0  0  0  0
    7.6265    0.8648    0.0105 H   0  0  0  0  0  0  0  0  0  0  0  0
    2.9370    4.3803    0.0447 H   0  0  0  0  0  0  0  0  0  0  0  0
   10.2671    2.2031    0.0397 H   0  0  0  0  0  0  0  0  0  0  0  0
    9.3236    3.9541    1.1372 H   0  0  0  0  0  0  0  0  0  0  0  0
    9.3389    3.9139   -1.1311 H   0  0  0  0  0  0  0  0  0  0  0  0
    0.3331    0.0000    0.0221 H   0  0  0  0  0  0  0  0  0  0  0  0
  1  2  1  0  0  0  0
  1  3  2  0  0  0  0
  1  9  1  0  0  0  0
  2  4  2  0  0  0  0
  2 10  1  0  0  0  0
  3  5  1  0  0  0  0
  3 11  1  0  0  0  0
  4  6  1  0  0  0  0
  4 12  1  0  0  0  0
  5 13  1  0  0  0  0
  5 14  1  1  0  0  0
  5 15  1  6  0  0  0
  6  7  2  0  0  0  0
  6  8  1  0  0  0  0
  8 16  1  0  0  0  0
M  END
>  <Formula> (145)
C6H8O2

>  <Name> (145)
(E,E)-2,4-HEXADIENOIC ACID

>  <CAS-Nr> (145)
110-44-1

>  <EINECS> (145)
203-768-7

>  <21 CFR> (145)
133.118, 150.161, 182.3089, 150.141, 166.110, 177.2260, 133.123, 133.124, 133.169, 133.173, 133.179, 133.187, 133.188, 172.872, 181.23

>  <LD50-rat-oral> (145)
7360

>  <Compound classification> (145)
Ali-COOH

>  <Microorganism> (145)
Aspergillus niger

>  <Microorganism type> (145)
PM 5

>  <Microorganism classification> (145)
fungi

>  <NIC> (145)
3180

>  <Annotation> (145)
pH=7

>  <Method abbreviation> (145)
ADlT

>  <Ref-Nr> (145)
6227

>  <Marker> (145)
0

>  <Method> (145)
Agar dilution test; Inoculum size: ---; Medium: potato-dextrose agar; pH: 3.5, 5.6, 7; Incubation-temperature: 22 degrees Centigrade; Incubation-time: 5d; Solubility enhancer: ethanol; compound solution was deposited on the surface of the agar plate. The plates were left for 5 to 7h before inoculation with microorganisms.

>  <Reference> (145)
Razavi-Rohani, S.M., Griffiths, M.W.: Antifungal Effects of Sorbic Acid and Propionic Acid at Different pH and NaCl Conditions; Journal of Food Safety 19, 109-120 (1999)

>  <mol_id> (145)
203

>  <LD50-mouse-oral> (145)
3200

>  <LD50-mou-ip> (145)
2820

>  <MolWeight> (145)
112.12

>  <Nickname> (145)
Sorbic acid

$$$$

csChmFindW11180110282D

 16 15  0  0  0  0  0  0  0  0999 V2000
    6.1027    3.0562    0.0279 C   0  0  0  0  0  0  0  0  0  0  0  0
    4.5092    2.1912    0.0271 C   0  0  0  0  0  0  0  0  0  0  0  0
    7.5772    2.2467    0.0190 C   0  0  0  0  0  0  0  0  0  0  0  0
    3.0341    3.0022    0.0360 C   0  0  0  0  0  0  0  0  0  0  0  0
    9.2077    3.1183    0.0168 C   0  0  0  0  0  0  0  0  0  0  0  0
    1.4142    2.1499    0.0353 C   0  0  0  0  0  0  0  0  0  0  0  0
    0.0000    2.7838    0.0460 O   0  0  0  0  0  0  0  0  0  0  0  0
    1.4690    0.4367    0.0213 O   0  0  0  0  0  0  0  0  0  0  0  0
    6.0552    4.4386    0.0365 H   0  0  0  0  0  0  0  0  0  0  0  0
    4.5470    0.8050    0.0185 H   0  0  0  0  0  0  0  0  0  0  0  0
    7.6265    0.8648    0.0105 H   0  0  0  0  0  0  0  0  0  0  0  0
    2.9370    4.3803    0.0447 H   0  0  0  0  0  0  0  0  0  0  0  0
   10.2671    2.2031    0.0397 H   0  0  0  0  0  0  0  0  0  0  0  0
    9.3236    3.9541    1.1372 H   0  0  0  0  0  0  0  0  0  0  0  0
    9.3389    3.9139   -1.1311 H   0  0  0  0  0  0  0  0  0  0  0  0
    0.3331    0.0000    0.0221 H   0  0  0  0  0  0  0  0  0  0  0  0
  1  2  1  0  0  0  0
  1  3  2  0  0  0  0
  1  9  1  0  0  0  0
  2  4  2  0  0  0  0
  2 10  1  0  0  0  0
  3  5  1  0  0  0  0
  3 11  1  0  0  0  0
  4  6  1  0  0  0  0
  4 12  1  0  0  0  0
  5 13  1  0  0  0  0
  5 14  1  1  0  0  0
  5 15  1  6  0  0  0
  6  7  2  0  0  0  0
  6  8  1  0  0  0  0
  8 16  1  0  0  0  0
M  END
>  <Formula> (146)
C6H8O2

>  <Name> (146)
(E,E)-2,4-HEXADIENOIC ACID

>  <CAS-Nr> (146)
110-44-1

>  <EINECS> (146)
203-768-7

>  <21 CFR> (146)
133.118, 150.161, 182.3089, 150.141, 166.110, 177.2260, 133.123, 133.124, 133.169, 133.173, 133.179, 133.187, 133.188, 172.872, 181.23

>  <LD50-rat-oral> (146)
7360

>  <Compound classification> (146)
Ali-COOH

>  <Microorganism> (146)
Aspergillus niger

>  <Microorganism type> (146)
PM 5

>  <Microorganism classification> (146)
fungi

>  <MIC> (146)
236

>  <Annotation> (146)
pH=3.5

>  <Method abbreviation> (146)
ADlT

>  <Ref-Nr> (146)
6227

>  <Marker> (146)
0

>  <Method> (146)
Agar dilution test; Inoculum size: ---; Medium: potato-dextrose agar; pH: 3.5, 5.6, 7; Incubation-temperature: 22 degrees Centigrade; Incubation-time: 5d; Solubility enhancer: ethanol; compound solution was deposited on the surface of the agar plate. The plates were left for 5 to 7h before inoculation with microorganisms.

>  <Reference> (146)
Razavi-Rohani, S.M., Griffiths, M.W.: Antifungal Effects of Sorbic Acid and Propionic Acid at Different pH and NaCl Conditions; Journal of Food Safety 19, 109-120 (1999)

>  <mol_id> (146)
203

>  <LD50-mouse-oral> (146)
3200

>  <LD50-mou-ip> (146)
2820

>  <MolWeight> (146)
112.12

>  <Nickname> (146)
Sorbic acid

$$$$

csChmFindW11180110282D

 16 15  0  0  0  0  0  0  0  0999 V2000
    6.1027    3.0562    0.0279 C   0  0  0  0  0  0  0  0  0  0  0  0
    4.5092    2.1912    0.0271 C   0  0  0  0  0  0  0  0  0  0  0  0
    7.5772    2.2467    0.0190 C   0  0  0  0  0  0  0  0  0  0  0  0
    3.0341    3.0022    0.0360 C   0  0  0  0  0  0  0  0  0  0  0  0
    9.2077    3.1183    0.0168 C   0  0  0  0  0  0  0  0  0  0  0  0
    1.4142    2.1499    0.0353 C   0  0  0  0  0  0  0  0  0  0  0  0
    0.0000    2.7838    0.0460 O   0  0  0  0  0  0  0  0  0  0  0  0
    1.4690    0.4367    0.0213 O   0  0  0  0  0  0  0  0  0  0  0  0
    6.0552    4.4386    0.0365 H   0  0  0  0  0  0  0  0  0  0  0  0
    4.5470    0.8050    0.0185 H   0  0  0  0  0  0  0  0  0  0  0  0
    7.6265    0.8648    0.0105 H   0  0  0  0  0  0  0  0  0  0  0  0
    2.9370    4.3803    0.0447 H   0  0  0  0  0  0  0  0  0  0  0  0
   10.2671    2.2031    0.0397 H   0  0  0  0  0  0  0  0  0  0  0  0
    9.3236    3.9541    1.1372 H   0  0  0  0  0  0  0  0  0  0  0  0
    9.3389    3.9139   -1.1311 H   0  0  0  0  0  0  0  0  0  0  0  0
    0.3331    0.0000    0.0221 H   0  0  0  0  0  0  0  0  0  0  0  0
  1  2  1  0  0  0  0
  1  3  2  0  0  0  0
  1  9  1  0  0  0  0
  2  4  2  0  0  0  0
  2 10  1  0  0  0  0
  3  5  1  0  0  0  0
  3 11  1  0  0  0  0
  4  6  1  0  0  0  0
  4 12  1  0  0  0  0
  5 13  1  0  0  0  0
  5 14  1  1  0  0  0
  5 15  1  6  0  0  0
  6  7  2  0  0  0  0
  6  8  1  0  0  0  0
  8 16  1  0  0  0  0
M  END
>  <Formula> (147)
C6H8O2

>  <Name> (147)
(E,E)-2,4-HEXADIENOIC ACID

>  <CAS-Nr> (147)
110-44-1

>  <EINECS> (147)
203-768-7

>  <21 CFR> (147)
133.118, 150.161, 182.3089, 150.141, 166.110, 177.2260, 133.123, 133.124, 133.169, 133.173, 133.179, 133.187, 133.188, 172.872, 181.23

>  <LD50-rat-oral> (147)
7360

>  <Compound classification> (147)
Ali-COOH

>  <Microorganism> (147)
Aspergillus niger

>  <Microorganism type> (147)
PM 5

>  <Microorganism classification> (147)
fungi

>  <MIC> (147)
1350

>  <Annotation> (147)
pH=5.6

>  <Method abbreviation> (147)
ADlT

>  <Ref-Nr> (147)
6227

>  <Marker> (147)
0

>  <Method> (147)
Agar dilution test; Inoculum size: ---; Medium: potato-dextrose agar; pH: 3.5, 5.6, 7; Incubation-temperature: 22 degrees Centigrade; Incubation-time: 5d; Solubility enhancer: ethanol; compound solution was deposited on the surface of the agar plate. The plates were left for 5 to 7h before inoculation with microorganisms.

>  <Reference> (147)
Razavi-Rohani, S.M., Griffiths, M.W.: Antifungal Effects of Sorbic Acid and Propionic Acid at Different pH and NaCl Conditions; Journal of Food Safety 19, 109-120 (1999)

>  <mol_id> (147)
203

>  <LD50-mouse-oral> (147)
3200

>  <LD50-mou-ip> (147)
2820

>  <MolWeight> (147)
112.12

>  <Nickname> (147)
Sorbic acid

$$$$

csChmFindW11180110282D

 52 51  0  0  0  0  0  0  0  0999 V2000
   17.3424   12.4128    1.5364 C   0  0  0  0  0  0  0  0  0  0  0  0
   19.1245   11.1772    1.7763 C   0  0  0  0  0  0  0  0  0  0  0  0
   15.5340   11.2318    1.8363 C   0  0  0  0  0  0  0  0  0  0  0  0
   20.9139   12.3684    1.6590 C   0  0  0  0  0  0  0  0  0  0  0  0
   13.7486   12.4479    1.5349 C   0  0  0  0  0  0  0  0  0  0  0  0
   21.2363   14.0011    2.2850 O   0  0  0  0  0  0  0  0  0  0  0  0
   22.4019   11.4747    0.7359 O   0  0  0  0  0  0  0  0  0  0  0  0
   11.9337   11.2813    1.8526 C   0  0  0  0  0  0  0  0  0  0  0  0
   10.1511   12.4917    1.5158 C   0  0  0  0  0  0  0  0  0  0  0  0
    8.3341   11.3327    1.8595 C   0  0  0  0  0  0  0  0  0  0  0  0
    6.5679   12.4788    1.5063 C   0  0  0  0  0  0  0  0  0  0  0  0
    4.7935   11.8940    1.9780 C   0  0  0  0  0  0  0  0  0  0  0  0
    4.3778   10.0343    2.9436 C   0  0  0  0  0  0  0  0  0  0  0  0
    2.2978    9.5515    3.0057 C   0  0  0  0  0  0  0  0  0  0  0  0
    1.5600    8.1446    4.0964 C   0  0  0  0  0  0  0  0  0  0  0  0
    2.7212    6.9121    5.3964 C   0  0  0  0  0  0  0  0  0  0  0  0
    1.5561    5.2698    6.2381 C   0  0  0  0  0  0  0  0  0  0  0  0
    2.7747    4.0370    7.5613 C   0  0  0  0  0  0  0  0  0  0  0  0
    1.6077    2.4108    8.4280 C   0  0  0  0  0  0  0  0  0  0  0  0
    2.8109    1.1876    9.7583 C   0  0  0  0  0  0  0  0  0  0  0  0
   17.3303   13.0637    0.0571 H   0  0  0  0  0  0  0  0  0  0  0  0
   17.3882   13.6350    2.5949 H   0  0  0  0  0  0  0  0  0  0  0  0
   19.1701   10.0189    0.6495 H   0  0  0  0  0  0  0  0  0  0  0  0
   19.1172   10.4572    3.2262 H   0  0  0  0  0  0  0  0  0  0  0  0
   15.5265   10.6185    3.3320 H   0  0  0  0  0  0  0  0  0  0  0  0
   15.5206    9.9846    0.8081 H   0  0  0  0  0  0  0  0  0  0  0  0
   13.7508   13.0511    0.0352 H   0  0  0  0  0  0  0  0  0  0  0  0
   13.7707   13.7034    2.5531 H   0  0  0  0  0  0  0  0  0  0  0  0
   23.5232   12.3117    0.7284 H   0  0  0  0  0  0  0  0  0  0  0  0
   11.9195   10.7012    3.3614 H   0  0  0  0  0  0  0  0  0  0  0  0
   11.9228   10.0108    0.8532 H   0  0  0  0  0  0  0  0  0  0  0  0
   10.1580   13.0559    0.0010 H   0  0  0  0  0  0  0  0  0  0  0  0
   10.1700   13.7721    2.5020 H   0  0  0  0  0  0  0  0  0  0  0  0
    8.3283   10.7754    3.3811 H   0  0  0  0  0  0  0  0  0  0  0  0
    8.3281   10.0343    0.8888 H   0  0  0  0  0  0  0  0  0  0  0  0
    6.7843   13.8864    0.8026 H   0  0  0  0  0  0  0  0  0  0  0  0
    3.5389   12.8166    1.6664 H   0  0  0  0  0  0  0  0  0  0  0  0
    4.9710   10.0816    4.4563 H   0  0  0  0  0  0  0  0  0  0  0  0
    5.1730    8.8378    2.1831 H   0  0  0  0  0  0  0  0  0  0  0  0
    1.3500   10.4196    2.0728 H   0  0  0  0  0  0  0  0  0  0  0  0
    0.0000    7.8474    4.0688 H   0  0  0  0  0  0  0  0  0  0  0  0
    3.3196    7.8208    6.5986 H   0  0  0  0  0  0  0  0  0  0  0  0
    3.9928    6.3149    4.5887 H   0  0  0  0  0  0  0  0  0  0  0  0
    0.9608    4.3589    5.0431 H   0  0  0  0  0  0  0  0  0  0  0  0
    0.2964    5.8637    7.0585 H   0  0  0  0  0  0  0  0  0  0  0  0
    3.3875    4.9527    8.7441 H   0  0  0  0  0  0  0  0  0  0  0  0
    4.0237    3.4262    6.7366 H   0  0  0  0  0  0  0  0  0  0  0  0
    1.0029    1.4917    7.2433 H   0  0  0  0  0  0  0  0  0  0  0  0
    0.3521    3.0237    9.2414 H   0  0  0  0  0  0  0  0  0  0  0  0
    1.9229    0.0000   10.3822 H   0  0  0  0  0  0  0  0  0  0  0  0
    3.3984    2.0719   10.9675 H   0  0  0  0  0  0  0  0  0  0  0  0
    4.0488    0.5336    8.9647 H   0  0  0  0  0  0  0  0  0  0  0  0
  1  2  1  0  0  0  0
  1  3  1  0  0  0  0
  1 21  1  6  0  0  0
  1 22  1  1  0  0  0
  2  4  1  0  0  0  0
  2 23  1  6  0  0  0
  2 24  1  1  0  0  0
  3  5  1  0  0  0  0
  3 25  1  1  0  0  0
  3 26  1  6  0  0  0
  4  6  2  0  0  0  0
  4  7  1  6  0  0  0
  5  8  1  0  0  0  0
  5 27  1  6  0  0  0
  5 28  1  1  0  0  0
  7 29  1  0  0  0  0
  8  9  1  0  0  0  0
  8 30  1  1  0  0  0
  8 31  1  6  0  0  0
  9 10  1  0  0  0  0
  9 32  1  6  0  0  0
  9 33  1  1  0  0  0
 10 11  1  0  0  0  0
 10 34  1  1  0  0  0
 10 35  1  6  0  0  0
 11 12  2  0  0  0  0
 11 36  1  0  0  0  0
 12 13  1  1  0  0  0
 12 37  1  0  0  0  0
 13 14  1  0  0  0  0
 13 38  1  1  0  0  0
 13 39  1  6  0  0  0
 14 15  2  0  0  0  0
 14 40  1  6  0  0  0
 15 16  1  1  0  0  0
 15 41  1  0  0  0  0
 16 17  1  0  0  0  0
 16 42  1  1  0  0  0
 16 43  1  6  0  0  0
 17 18  1  1  0  0  0
 17 44  1  6  0  0  0
 17 45  1  1  0  0  0
 18 19  1  0  0  0  0
 18 46  1  1  0  0  0
 18 47  1  6  0  0  0
 19 20  1  1  0  0  0
 19 48  1  6  0  0  0
 19 49  1  1  0  0  0
 20 50  1  0  0  0  0
 20 51  1  1  0  0  0
 20 52  1  6  0  0  0
M  END
>  <Formula> (148)
C18H32O2

>  <Name> (148)
(Z,Z)-9,12-OCTADECADIENOIC ACID

>  <CAS-Nr> (148)
60-33-3

>  <EINECS> (148)
207-334-8

>  <21 CFR> (148)
182.5065, 184.1065

>  <Compound classification> (148)
Ali-COOH

>  <Microorganism> (148)
Fusarium solani var. pisi

>  <Microorganism classification> (148)
fungi

>  <VPT evaluation> (148)
1

>  <Annotation> (148)
inhibition of chlamydospores germination

>  <Method abbreviation> (148)
VPT

>  <Ref-Nr> (148)
6256

>  <Marker> (148)
0

>  <Method> (148)
Vapor phase test; Inoculum size: ---; Medium: Bacto potato-dextrose agar; pH: ---; Incubation-temperature: room temperature; Incubation-time: 2d; Compound was given on the petri dish lid. Spores were separated and counted after 2 days incubation.

>  <Reference> (148)
Harman, G.E., Mattick, L.R., Nash, G., Nedrow, B.L.: Stimulation of Fungal Spore Germination and Inhibition of Sporulation in Fungal Vegetative Thalli by Fatty Acids and Their Volatile Peroxidation Products; Canadian Journal of Botany 58, 1541-7 (1980)

>  <mol_id> (148)
981

>  <LD50-mouse-oral> (148)
>50000

>  <LD50-mou-ip> (148)
280

>  <MolWeight> (148)
280.44

>  <Nickname> (148)
Linoleic acid

$$$$

csChmFindW11180110282D

 52 51  0  0  0  0  0  0  0  0999 V2000
   17.3424   12.4128    1.5364 C   0  0  0  0  0  0  0  0  0  0  0  0
   19.1245   11.1772    1.7763 C   0  0  0  0  0  0  0  0  0  0  0  0
   15.5340   11.2318    1.8363 C   0  0  0  0  0  0  0  0  0  0  0  0
   20.9139   12.3684    1.6590 C   0  0  0  0  0  0  0  0  0  0  0  0
   13.7486   12.4479    1.5349 C   0  0  0  0  0  0  0  0  0  0  0  0
   21.2363   14.0011    2.2850 O   0  0  0  0  0  0  0  0  0  0  0  0
   22.4019   11.4747    0.7359 O   0  0  0  0  0  0  0  0  0  0  0  0
   11.9337   11.2813    1.8526 C   0  0  0  0  0  0  0  0  0  0  0  0
   10.1511   12.4917    1.5158 C   0  0  0  0  0  0  0  0  0  0  0  0
    8.3341   11.3327    1.8595 C   0  0  0  0  0  0  0  0  0  0  0  0
    6.5679   12.4788    1.5063 C   0  0  0  0  0  0  0  0  0  0  0  0
    4.7935   11.8940    1.9780 C   0  0  0  0  0  0  0  0  0  0  0  0
    4.3778   10.0343    2.9436 C   0  0  0  0  0  0  0  0  0  0  0  0
    2.2978    9.5515    3.0057 C   0  0  0  0  0  0  0  0  0  0  0  0
    1.5600    8.1446    4.0964 C   0  0  0  0  0  0  0  0  0  0  0  0
    2.7212    6.9121    5.3964 C   0  0  0  0  0  0  0  0  0  0  0  0
    1.5561    5.2698    6.2381 C   0  0  0  0  0  0  0  0  0  0  0  0
    2.7747    4.0370    7.5613 C   0  0  0  0  0  0  0  0  0  0  0  0
    1.6077    2.4108    8.4280 C   0  0  0  0  0  0  0  0  0  0  0  0
    2.8109    1.1876    9.7583 C   0  0  0  0  0  0  0  0  0  0  0  0
   17.3303   13.0637    0.0571 H   0  0  0  0  0  0  0  0  0  0  0  0
   17.3882   13.6350    2.5949 H   0  0  0  0  0  0  0  0  0  0  0  0
   19.1701   10.0189    0.6495 H   0  0  0  0  0  0  0  0  0  0  0  0
   19.1172   10.4572    3.2262 H   0  0  0  0  0  0  0  0  0  0  0  0
   15.5265   10.6185    3.3320 H   0  0  0  0  0  0  0  0  0  0  0  0
   15.5206    9.9846    0.8081 H   0  0  0  0  0  0  0  0  0  0  0  0
   13.7508   13.0511    0.0352 H   0  0  0  0  0  0  0  0  0  0  0  0
   13.7707   13.7034    2.5531 H   0  0  0  0  0  0  0  0  0  0  0  0
   23.5232   12.3117    0.7284 H   0  0  0  0  0  0  0  0  0  0  0  0
   11.9195   10.7012    3.3614 H   0  0  0  0  0  0  0  0  0  0  0  0
   11.9228   10.0108    0.8532 H   0  0  0  0  0  0  0  0  0  0  0  0
   10.1580   13.0559    0.0010 H   0  0  0  0  0  0  0  0  0  0  0  0
   10.1700   13.7721    2.5020 H   0  0  0  0  0  0  0  0  0  0  0  0
    8.3283   10.7754    3.3811 H   0  0  0  0  0  0  0  0  0  0  0  0
    8.3281   10.0343    0.8888 H   0  0  0  0  0  0  0  0  0  0  0  0
    6.7843   13.8864    0.8026 H   0  0  0  0  0  0  0  0  0  0  0  0
    3.5389   12.8166    1.6664 H   0  0  0  0  0  0  0  0  0  0  0  0
    4.9710   10.0816    4.4563 H   0  0  0  0  0  0  0  0  0  0  0  0
    5.1730    8.8378    2.1831 H   0  0  0  0  0  0  0  0  0  0  0  0
    1.3500   10.4196    2.0728 H   0  0  0  0  0  0  0  0  0  0  0  0
    0.0000    7.8474    4.0688 H   0  0  0  0  0  0  0  0  0  0  0  0
    3.3196    7.8208    6.5986 H   0  0  0  0  0  0  0  0  0  0  0  0
    3.9928    6.3149    4.5887 H   0  0  0  0  0  0  0  0  0  0  0  0
    0.9608    4.3589    5.0431 H   0  0  0  0  0  0  0  0  0  0  0  0
    0.2964    5.8637    7.0585 H   0  0  0  0  0  0  0  0  0  0  0  0
    3.3875    4.9527    8.7441 H   0  0  0  0  0  0  0  0  0  0  0  0
    4.0237    3.4262    6.7366 H   0  0  0  0  0  0  0  0  0  0  0  0
    1.0029    1.4917    7.2433 H   0  0  0  0  0  0  0  0  0  0  0  0
    0.3521    3.0237    9.2414 H   0  0  0  0  0  0  0  0  0  0  0  0
    1.9229    0.0000   10.3822 H   0  0  0  0  0  0  0  0  0  0  0  0
    3.3984    2.0719   10.9675 H   0  0  0  0  0  0  0  0  0  0  0  0
    4.0488    0.5336    8.9647 H   0  0  0  0  0  0  0  0  0  0  0  0
  1  2  1  0  0  0  0
  1  3  1  0  0  0  0
  1 21  1  6  0  0  0
  1 22  1  1  0  0  0
  2  4  1  0  0  0  0
  2 23  1  6  0  0  0
  2 24  1  1  0  0  0
  3  5  1  0  0  0  0
  3 25  1  1  0  0  0
  3 26  1  6  0  0  0
  4  6  2  0  0  0  0
  4  7  1  6  0  0  0
  5  8  1  0  0  0  0
  5 27  1  6  0  0  0
  5 28  1  1  0  0  0
  7 29  1  0  0  0  0
  8  9  1  0  0  0  0
  8 30  1  1  0  0  0
  8 31  1  6  0  0  0
  9 10  1  0  0  0  0
  9 32  1  6  0  0  0
  9 33  1  1  0  0  0
 10 11  1  0  0  0  0
 10 34  1  1  0  0  0
 10 35  1  6  0  0  0
 11 12  2  0  0  0  0
 11 36  1  0  0  0  0
 12 13  1  1  0  0  0
 12 37  1  0  0  0  0
 13 14  1  0  0  0  0
 13 38  1  1  0  0  0
 13 39  1  6  0  0  0
 14 15  2  0  0  0  0
 14 40  1  6  0  0  0
 15 16  1  1  0  0  0
 15 41  1  0  0  0  0
 16 17  1  0  0  0  0
 16 42  1  1  0  0  0
 16 43  1  6  0  0  0
 17 18  1  1  0  0  0
 17 44  1  6  0  0  0
 17 45  1  1  0  0  0
 18 19  1  0  0  0  0
 18 46  1  1  0  0  0
 18 47  1  6  0  0  0
 19 20  1  1  0  0  0
 19 48  1  6  0  0  0
 19 49  1  1  0  0  0
 20 50  1  0  0  0  0
 20 51  1  1  0  0  0
 20 52  1  6  0  0  0
M  END
>  <Formula> (149)
C18H32O2

>  <Name> (149)
(Z,Z)-9,12-OCTADECADIENOIC ACID

>  <CAS-Nr> (149)
60-33-3

>  <EINECS> (149)
207-334-8

>  <21 CFR> (149)
182.5065, 184.1065

>  <Compound classification> (149)
Ali-COOH

>  <Microorganism> (149)
Fusarium solani var. pisi

>  <Microorganism classification> (149)
fungi

>  <VPT evaluation> (149)
3

>  <Annotation> (149)
inhibition of conidiospores germination

>  <Method abbreviation> (149)
VPT

>  <Ref-Nr> (149)
6256

>  <Marker> (149)
0

>  <Method> (149)
Vapor phase test; Inoculum size: ---; Medium: Bacto potato-dextrose agar; pH: ---; Incubation-temperature: room temperature; Incubation-time: 2d; Compound was given on the petri dish lid. Spores were separated and counted after 2 days incubation.

>  <Reference> (149)
Harman, G.E., Mattick, L.R., Nash, G., Nedrow, B.L.: Stimulation of Fungal Spore Germination and Inhibition of Sporulation in Fungal Vegetative Thalli by Fatty Acids and Their Volatile Peroxidation Products; Canadian Journal of Botany 58, 1541-7 (1980)

>  <mol_id> (149)
981

>  <LD50-mouse-oral> (149)
>50000

>  <LD50-mou-ip> (149)
280

>  <MolWeight> (149)
280.44

>  <Nickname> (149)
Linoleic acid

$$$$

csChmFindW11180110282D

 50 52  0  0  0  0  0  0  0  0999 V2000
    1.3907    4.8828    0.7788 C   0  0  0  0  0  0  0  0  0  0  0  0
    1.2671    3.7423   -0.7879 C   0  0  0  0  0  0  0  0  0  0  0  0
    2.7167    2.4109   -0.8998 C   0  0  0  0  0  0  0  0  0  0  0  0
    4.4525    3.3302   -0.6770 C   0  0  0  0  0  0  0  0  0  0  0  0
    4.6283    4.5261    0.8964 C   0  0  0  0  0  0  0  0  0  0  0  0
    3.1105    5.7852    0.8905 C   0  0  0  0  0  0  0  0  0  0  0  0
    5.9871    2.1230   -0.7629 C   0  0  0  0  0  0  0  0  0  0  0  0
    7.6129    3.1339   -1.1202 C   0  0  0  0  0  0  0  0  0  0  0  0
    7.7033    4.8074   -0.1929 C   0  0  0  0  0  0  0  0  0  0  0  0
    6.3120    5.4934    0.7318 C   0  0  0  0  0  0  0  0  0  0  0  0
    9.4574    7.3037    0.5332 C   0  0  0  0  0  0  0  0  0  0  0  0
    8.0746    7.9714    1.4733 C   0  0  0  0  0  0  0  0  0  0  0  0
    6.5302    7.0749    1.5695 C   0  0  0  0  0  0  0  0  0  0  0  0
    2.3978    0.9628    0.3768 C   0  0  0  0  0  0  0  0  0  0  0  0
    2.6442    1.6340   -2.7099 C   0  0  0  0  0  0  0  0  0  0  0  0
    9.2553    5.7204   -0.2869 C   0  0  0  0  0  0  0  0  0  0  0  0
   11.1238    8.2575    0.4051 C   0  0  0  0  0  0  0  0  0  0  0  0
   11.9482    8.4684    2.1607 C   0  0  0  0  0  0  0  0  0  0  0  0
   10.8713    9.9965   -0.4428 C   0  0  0  0  0  0  0  0  0  0  0  0
    4.6891    3.5936    2.6218 C   0  0  0  0  0  0  0  0  0  0  0  0
    1.1703    4.1079    1.9759 H   0  0  0  0  0  0  0  0  0  0  0  0
    0.3434    5.8757    0.7214 H   0  0  0  0  0  0  0  0  0  0  0  0
    1.3064    4.5664   -1.9731 H   0  0  0  0  0  0  0  0  0  0  0  0
    0.0000    3.0525   -0.7804 H   0  0  0  0  0  0  0  0  0  0  0  0
    4.5496    4.2192   -1.8302 H   0  0  0  0  0  0  0  0  0  0  0  0
    3.1292    6.5746    2.0978 H   0  0  0  0  0  0  0  0  0  0  0  0
    3.2580    6.6862   -0.2260 H   0  0  0  0  0  0  0  0  0  0  0  0
    5.8014    1.1525   -1.8131 H   0  0  0  0  0  0  0  0  0  0  0  0
    6.1235    1.3897    0.4702 H   0  0  0  0  0  0  0  0  0  0  0  0
    7.7061    3.4026   -2.5393 H   0  0  0  0  0  0  0  0  0  0  0  0
    8.7609    2.3303   -0.7673 H   0  0  0  0  0  0  0  0  0  0  0  0
    8.2125    9.2113    2.1413 H   0  0  0  0  0  0  0  0  0  0  0  0
    5.4714    7.6264    2.3293 H   0  0  0  0  0  0  0  0  0  0  0  0
    3.6209    0.2887    0.7058 H   0  0  0  0  0  0  0  0  0  0  0  0
    1.4902    0.0000   -0.1879 H   0  0  0  0  0  0  0  0  0  0  0  0
    1.8001    1.4518    1.5871 H   0  0  0  0  0  0  0  0  0  0  0  0
    3.4501    0.4487   -2.7860 H   0  0  0  0  0  0  0  0  0  0  0  0
    3.1104    2.5738   -3.6890 H   0  0  0  0  0  0  0  0  0  0  0  0
    1.2909    1.2753   -3.0327 H   0  0  0  0  0  0  0  0  0  0  0  0
   10.3306    5.1689   -1.0257 H   0  0  0  0  0  0  0  0  0  0  0  0
   12.0340    7.4870   -0.4242 H   0  0  0  0  0  0  0  0  0  0  0  0
   13.1864    9.1857    2.0397 H   0  0  0  0  0  0  0  0  0  0  0  0
   12.2152    7.1846    2.7453 H   0  0  0  0  0  0  0  0  0  0  0  0
   11.0820    9.1987    3.0431 H   0  0  0  0  0  0  0  0  0  0  0  0
   12.1356   10.6628   -0.5847 H   0  0  0  0  0  0  0  0  0  0  0  0
   10.0055   10.8250    0.3485 H   0  0  0  0  0  0  0  0  0  0  0  0
   10.2857    9.8392   -1.7440 H   0  0  0  0  0  0  0  0  0  0  0  0
    4.7940    4.5601    3.6816 H   0  0  0  0  0  0  0  0  0  0  0  0
    5.8302    2.7264    2.6973 H   0  0  0  0  0  0  0  0  0  0  0  0
    3.5052    2.8159    2.8344 H   0  0  0  0  0  0  0  0  0  0  0  0
  1  2  1  6  0  0  0
  1  6  1  0  0  0  0
  1 21  1  1  0  0  0
  1 22  1  0  0  0  0
  2  3  1  0  0  0  0
  2 23  1  6  0  0  0
  2 24  1  0  0  0  0
  3  4  1  0  0  0  0
  3 14  1  1  0  0  0
  3 15  1  6  0  0  0
  4  5  1  1  0  0  0
  4  7  1  0  0  0  0
  4 25  1  6  0  0  0
  5  6  1  0  0  0  0
  5 10  1  0  0  0  0
  5 20  1  1  0  0  0
  6 26  1  1  0  0  0
  6 27  1  6  0  0  0
  7  8  1  0  0  0  0
  7 28  1  6  0  0  0
  7 29  1  1  0  0  0
  8  9  1  1  0  0  0
  8 30  1  6  0  0  0
  8 31  1  0  0  0  0
  9 10  2  0  0  0  0
  9 16  1  0  0  0  0
 10 13  1  1  0  0  0
 11 12  1  1  0  0  0
 11 16  2  0  0  0  0
 11 17  1  0  0  0  0
 12 13  2  0  0  0  0
 12 32  1  1  0  0  0
 13 33  1  1  0  0  0
 14 34  1  0  0  0  0
 14 35  1  0  0  0  0
 14 36  1  1  0  0  0
 15 37  1  0  0  0  0
 15 38  1  6  0  0  0
 15 39  1  0  0  0  0
 16 40  1  6  0  0  0
 17 18  1  1  0  0  0
 17 19  1  0  0  0  0
 17 41  1  6  0  0  0
 18 42  1  0  0  0  0
 18 43  1  0  0  0  0
 18 44  1  1  0  0  0
 19 45  1  0  0  0  0
 19 46  1  1  0  0  0
 19 47  1  6  0  0  0
 20 48  1  1  0  0  0
 20 49  1  0  0  0  0
 20 50  1  0  0  0  0
M  END
>  <Formula> (150)
C20H30

>  <Name> (150)
7-ISOPROPYL-1,1,4A-TRIMETHYL-1,2,3,4,4A,9,10,10A-OCTAHYDRO-PHENANTHRENE

>  <Compound classification> (150)
Diterpene

>  <Microorganism> (150)
Eschericia coli

>  <Microorganism classification> (150)
Bac-

>  <ADT evaluation> (150)
1

>  <Method abbreviation> (150)
ADT

>  <Ref-Nr> (150)
6271

>  <Marker> (150)
0

>  <Method> (150)
Agar diffusion test; Medium: Mueller-Hinton agar; Inoculum size: ---; disk diameter: 5 mm; Incubation temperature: 37 degrees Centigrade; Incubation time: 24h; compound dose: 0.25, 0.5, 1, 5 mg/ml solutions per disk

>  <Reference> (150)
Darias, V., Bravo, I., Rabanal, R., Sanchez-Mateao, C.C., Martin-Herera, D.A.: Cytostatic and Antibacterial Activity of some Compounds Isolated from Several Lamiaceae Species from the Canary Islands; Planta Medica 56, 70-2 (1990)

>  <mol_id> (150)
2718

>  <MolWeight> (150)
270.45

>  <Nickname> (150)
Dehydroabietane

$$$$

csChmFindW11180110282D

 50 52  0  0  0  0  0  0  0  0999 V2000
    1.3907    4.8828    0.7788 C   0  0  0  0  0  0  0  0  0  0  0  0
    1.2671    3.7423   -0.7879 C   0  0  0  0  0  0  0  0  0  0  0  0
    2.7167    2.4109   -0.8998 C   0  0  0  0  0  0  0  0  0  0  0  0
    4.4525    3.3302   -0.6770 C   0  0  0  0  0  0  0  0  0  0  0  0
    4.6283    4.5261    0.8964 C   0  0  0  0  0  0  0  0  0  0  0  0
    3.1105    5.7852    0.8905 C   0  0  0  0  0  0  0  0  0  0  0  0
    5.9871    2.1230   -0.7629 C   0  0  0  0  0  0  0  0  0  0  0  0
    7.6129    3.1339   -1.1202 C   0  0  0  0  0  0  0  0  0  0  0  0
    7.7033    4.8074   -0.1929 C   0  0  0  0  0  0  0  0  0  0  0  0
    6.3120    5.4934    0.7318 C   0  0  0  0  0  0  0  0  0  0  0  0
    9.4574    7.3037    0.5332 C   0  0  0  0  0  0  0  0  0  0  0  0
    8.0746    7.9714    1.4733 C   0  0  0  0  0  0  0  0  0  0  0  0
    6.5302    7.0749    1.5695 C   0  0  0  0  0  0  0  0  0  0  0  0
    2.3978    0.9628    0.3768 C   0  0  0  0  0  0  0  0  0  0  0  0
    2.6442    1.6340   -2.7099 C   0  0  0  0  0  0  0  0  0  0  0  0
    9.2553    5.7204   -0.2869 C   0  0  0  0  0  0  0  0  0  0  0  0
   11.1238    8.2575    0.4051 C   0  0  0  0  0  0  0  0  0  0  0  0
   11.9482    8.4684    2.1607 C   0  0  0  0  0  0  0  0  0  0  0  0
   10.8713    9.9965   -0.4428 C   0  0  0  0  0  0  0  0  0  0  0  0
    4.6891    3.5936    2.6218 C   0  0  0  0  0  0  0  0  0  0  0  0
    1.1703    4.1079    1.9759 H   0  0  0  0  0  0  0  0  0  0  0  0
    0.3434    5.8757    0.7214 H   0  0  0  0  0  0  0  0  0  0  0  0
    1.3064    4.5664   -1.9731 H   0  0  0  0  0  0  0  0  0  0  0  0
    0.0000    3.0525   -0.7804 H   0  0  0  0  0  0  0  0  0  0  0  0
    4.5496    4.2192   -1.8302 H   0  0  0  0  0  0  0  0  0  0  0  0
    3.1292    6.5746    2.0978 H   0  0  0  0  0  0  0  0  0  0  0  0
    3.2580    6.6862   -0.2260 H   0  0  0  0  0  0  0  0  0  0  0  0
    5.8014    1.1525   -1.8131 H   0  0  0  0  0  0  0  0  0  0  0  0
    6.1235    1.3897    0.4702 H   0  0  0  0  0  0  0  0  0  0  0  0
    7.7061    3.4026   -2.5393 H   0  0  0  0  0  0  0  0  0  0  0  0
    8.7609    2.3303   -0.7673 H   0  0  0  0  0  0  0  0  0  0  0  0
    8.2125    9.2113    2.1413 H   0  0  0  0  0  0  0  0  0  0  0  0
    5.4714    7.6264    2.3293 H   0  0  0  0  0  0  0  0  0  0  0  0
    3.6209    0.2887    0.7058 H   0  0  0  0  0  0  0  0  0  0  0  0
    1.4902    0.0000   -0.1879 H   0  0  0  0  0  0  0  0  0  0  0  0
    1.8001    1.4518    1.5871 H   0  0  0  0  0  0  0  0  0  0  0  0
    3.4501    0.4487   -2.7860 H   0  0  0  0  0  0  0  0  0  0  0  0
    3.1104    2.5738   -3.6890 H   0  0  0  0  0  0  0  0  0  0  0  0
    1.2909    1.2753   -3.0327 H   0  0  0  0  0  0  0  0  0  0  0  0
   10.3306    5.1689   -1.0257 H   0  0  0  0  0  0  0  0  0  0  0  0
   12.0340    7.4870   -0.4242 H   0  0  0  0  0  0  0  0  0  0  0  0
   13.1864    9.1857    2.0397 H   0  0  0  0  0  0  0  0  0  0  0  0
   12.2152    7.1846    2.7453 H   0  0  0  0  0  0  0  0  0  0  0  0
   11.0820    9.1987    3.0431 H   0  0  0  0  0  0  0  0  0  0  0  0
   12.1356   10.6628   -0.5847 H   0  0  0  0  0  0  0  0  0  0  0  0
   10.0055   10.8250    0.3485 H   0  0  0  0  0  0  0  0  0  0  0  0
   10.2857    9.8392   -1.7440 H   0  0  0  0  0  0  0  0  0  0  0  0
    4.7940    4.5601    3.6816 H   0  0  0  0  0  0  0  0  0  0  0  0
    5.8302    2.7264    2.6973 H   0  0  0  0  0  0  0  0  0  0  0  0
    3.5052    2.8159    2.8344 H   0  0  0  0  0  0  0  0  0  0  0  0
  1  2  1  6  0  0  0
  1  6  1  0  0  0  0
  1 21  1  1  0  0  0
  1 22  1  0  0  0  0
  2  3  1  0  0  0  0
  2 23  1  6  0  0  0
  2 24  1  0  0  0  0
  3  4  1  0  0  0  0
  3 14  1  1  0  0  0
  3 15  1  6  0  0  0
  4  5  1  1  0  0  0
  4  7  1  0  0  0  0
  4 25  1  6  0  0  0
  5  6  1  0  0  0  0
  5 10  1  0  0  0  0
  5 20  1  1  0  0  0
  6 26  1  1  0  0  0
  6 27  1  6  0  0  0
  7  8  1  0  0  0  0
  7 28  1  6  0  0  0
  7 29  1  1  0  0  0
  8  9  1  1  0  0  0
  8 30  1  6  0  0  0
  8 31  1  0  0  0  0
  9 10  2  0  0  0  0
  9 16  1  0  0  0  0
 10 13  1  1  0  0  0
 11 12  1  1  0  0  0
 11 16  2  0  0  0  0
 11 17  1  0  0  0  0
 12 13  2  0  0  0  0
 12 32  1  1  0  0  0
 13 33  1  1  0  0  0
 14 34  1  0  0  0  0
 14 35  1  0  0  0  0
 14 36  1  1  0  0  0
 15 37  1  0  0  0  0
 15 38  1  6  0  0  0
 15 39  1  0  0  0  0
 16 40  1  6  0  0  0
 17 18  1  1  0  0  0
 17 19  1  0  0  0  0
 17 41  1  6  0  0  0
 18 42  1  0  0  0  0
 18 43  1  0  0  0  0
 18 44  1  1  0  0  0
 19 45  1  0  0  0  0
 19 46  1  1  0  0  0
 19 47  1  6  0  0  0
 20 48  1  1  0  0  0
 20 49  1  0  0  0  0
 20 50  1  0  0  0  0
M  END
>  <Formula> (151)
C20H30

>  <Name> (151)
7-ISOPROPYL-1,1,4A-TRIMETHYL-1,2,3,4,4A,9,10,10A-OCTAHYDRO-PHENANTHRENE

>  <Compound classification> (151)
Diterpene

>  <Microorganism> (151)
Pseudomonas aeruginosa

>  <Microorganism classification> (151)
Bac-

>  <ADT evaluation> (151)
1

>  <Method abbreviation> (151)
ADT

>  <Ref-Nr> (151)
6271

>  <Marker> (151)
0

>  <Method> (151)
Agar diffusion test; Medium: Mueller-Hinton agar; Inoculum size: ---; disk diameter: 5 mm; Incubation temperature: 37 degrees Centigrade; Incubation time: 24h; compound dose: 0.25, 0.5, 1, 5 mg/ml solutions per disk

>  <Reference> (151)
Darias, V., Bravo, I., Rabanal, R., Sanchez-Mateao, C.C., Martin-Herera, D.A.: Cytostatic and Antibacterial Activity of some Compounds Isolated from Several Lamiaceae Species from the Canary Islands; Planta Medica 56, 70-2 (1990)

>  <mol_id> (151)
2718

>  <MolWeight> (151)
270.45

>  <Nickname> (151)
Dehydroabietane

$$$$

csChmFindW11180110282D

 59 62  0  0  0  0  0  0  0  0999 V2000
    1.5199    6.8795    2.1870 C   0  0  0  0  0  0  0  0  0  0  0  0
    1.3867    4.9247    2.3963 C   0  0  0  0  0  0  0  0  0  0  0  0
    2.5432    3.9239    1.1118 C   0  0  0  0  0  0  0  0  0  0  0  0
    4.4278    4.5995    1.2905 C   0  0  0  0  0  0  0  0  0  0  0  0
    4.6455    6.5852    1.0558 C   0  0  0  0  0  0  0  0  0  0  0  0
    3.3825    7.5185    2.3066 C   0  0  0  0  0  0  0  0  0  0  0  0
    5.7122    3.5523    0.1988 C   0  0  0  0  0  0  0  0  0  0  0  0
    7.2418    4.6085   -0.5011 C   0  0  0  0  0  0  0  0  0  0  0  0
    7.9667    5.9696    0.7517 C   0  0  0  0  0  0  0  0  0  0  0  0
    6.5185    7.0155    1.6805 C   0  0  0  0  0  0  0  0  0  0  0  0
   10.0791    8.1610    1.3299 C   0  0  0  0  0  0  0  0  0  0  0  0
    8.7766    9.4262    2.1471 C   0  0  0  0  0  0  0  0  0  0  0  0
    6.8962    8.9723    1.7052 C   0  0  0  0  0  0  0  0  0  0  0  0
    9.1875    7.2494   -0.2157 C   0  0  0  0  0  0  0  0  0  0  0  0
    9.2120    5.2078    2.1560 C   0  0  0  0  0  0  0  0  0  0  0  0
   10.4408    6.6743    2.5722 C   0  0  0  0  0  0  0  0  0  0  0  0
   11.6562    6.6604    3.8092 C   0  0  0  0  0  0  0  0  0  0  0  0
    8.6501    3.4116   -0.8999 O   0  0  0  0  0  0  0  0  0  0  0  0
    2.5584    1.9864    1.6608 C   0  0  0  0  0  0  0  0  0  0  0  0
    4.2765    7.1844   -0.7998 C   0  0  0  0  0  0  0  0  0  0  0  0
    1.7844    4.0445   -0.7170 C   0  0  0  0  0  0  0  0  0  0  0  0
    0.8041    1.4078    1.7999 O   0  0  0  0  0  0  0  0  0  0  0  0
    8.5917    2.5516   -2.4598 C   0  0  0  0  0  0  0  0  0  0  0  0
    7.3500    2.8056   -3.4508 O   0  0  0  0  0  0  0  0  0  0  0  0
   10.1175    1.3755   -2.7246 C   0  0  0  0  0  0  0  0  0  0  0  0
    0.7329    7.5241    3.2422 H   0  0  0  0  0  0  0  0  0  0  0  0
    0.9272    7.2885    0.9129 H   0  0  0  0  0  0  0  0  0  0  0  0
    0.0000    4.4961    2.2043 H   0  0  0  0  0  0  0  0  0  0  0  0
    1.7720    4.5561    3.7603 H   0  0  0  0  0  0  0  0  0  0  0  0
    4.7830    4.3484    2.7065 H   0  0  0  0  0  0  0  0  0  0  0  0
    3.8513    7.3359    3.6823 H   0  0  0  0  0  0  0  0  0  0  0  0
    3.4089    8.9531    2.0161 H   0  0  0  0  0  0  0  0  0  0  0  0
    5.0545    2.9366   -0.9568 H   0  0  0  0  0  0  0  0  0  0  0  0
    6.2341    2.4550    1.0194 H   0  0  0  0  0  0  0  0  0  0  0  0
    6.8621    5.2807   -1.7553 H   0  0  0  0  0  0  0  0  0  0  0  0
    6.5479    6.6014    3.1002 H   0  0  0  0  0  0  0  0  0  0  0  0
   11.3014    8.8517    0.9398 H   0  0  0  0  0  0  0  0  0  0  0  0
    9.0536   10.7808    1.6680 H   0  0  0  0  0  0  0  0  0  0  0  0
    8.9549    9.4358    3.5992 H   0  0  0  0  0  0  0  0  0  0  0  0
    6.0263    9.6009    2.7029 H   0  0  0  0  0  0  0  0  0  0  0  0
    6.5584    9.5752    0.4163 H   0  0  0  0  0  0  0  0  0  0  0  0
    8.4734    8.1676   -1.0857 H   0  0  0  0  0  0  0  0  0  0  0  0
   10.1544    6.5075   -1.0157 H   0  0  0  0  0  0  0  0  0  0  0  0
    9.9578    4.0742    1.6127 H   0  0  0  0  0  0  0  0  0  0  0  0
    8.4902    4.7437    3.3337 H   0  0  0  0  0  0  0  0  0  0  0  0
   11.8550    5.5369    4.6739 H   0  0  0  0  0  0  0  0  0  0  0  0
   12.5289    7.7721    4.0364 H   0  0  0  0  0  0  0  0  0  0  0  0
    3.2244    1.8308    2.9572 H   0  0  0  0  0  0  0  0  0  0  0  0
    3.2682    1.1899    0.6567 H   0  0  0  0  0  0  0  0  0  0  0  0
    5.1674    8.2643   -1.1991 H   0  0  0  0  0  0  0  0  0  0  0  0
    2.9074    7.6716   -0.9243 H   0  0  0  0  0  0  0  0  0  0  0  0
    4.4305    6.0932   -1.7535 H   0  0  0  0  0  0  0  0  0  0  0  0
    2.7812    3.7571   -1.7377 H   0  0  0  0  0  0  0  0  0  0  0  0
    1.2452    5.3727   -0.9727 H   0  0  0  0  0  0  0  0  0  0  0  0
    0.6964    3.0812   -0.8549 H   0  0  0  0  0  0  0  0  0  0  0  0
    0.8567    0.1696    2.0143 H   0  0  0  0  0  0  0  0  0  0  0  0
   10.5815    1.5005   -4.1006 H   0  0  0  0  0  0  0  0  0  0  0  0
    9.6954    0.0000   -2.4857 H   0  0  0  0  0  0  0  0  0  0  0  0
   11.1986    1.7105   -1.8076 H   0  0  0  0  0  0  0  0  0  0  0  0
  1  2  1  0  0  0  0
  1  6  1  0  0  0  0
  1 26  1  1  0  0  0
  1 27  1  6  0  0  0
  2  3  1  6  0  0  0
  2 28  1  0  0  0  0
  2 29  1  1  0  0  0
  3  4  1  0  0  0  0
  3 19  1  0  0  0  0
  3 21  1  6  0  0  0
  4  5  1  0  0  0  0
  4  7  1  6  0  0  0
  4 30  1  1  0  0  0
  5  6  1  1  0  0  0
  5 10  1  0  0  0  0
  5 20  1  6  0  0  0
  6 31  1  1  0  0  0
  6 32  1  0  0  0  0
  7  8  1  0  0  0  0
  7 33  1  6  0  0  0
  7 34  1  1  0  0  0
  8  9  1  1  0  0  0
  8 18  1  0  0  0  0
  8 35  1  6  0  0  0
  9 10  1  1  0  0  0
  9 14  1  6  0  0  0
  9 15  1  1  0  0  0
 10 13  1  0  0  0  0
 10 36  1  1  0  0  0
 11 12  1  0  0  0  0
 11 14  1  6  0  0  0
 11 16  1  1  0  0  0
 11 37  1  0  0  0  0
 12 13  1  0  0  0  0
 12 38  1  0  0  0  0
 12 39  1  1  0  0  0
 13 40  1  1  0  0  0
 13 41  1  6  0  0  0
 14 42  1  6  0  0  0
 14 43  1  6  0  0  0
 15 16  1  0  0  0  0
 15 44  1  0  0  0  0
 15 45  1  1  0  0  0
 16 17  2  0  0  0  0
 17 46  1  1  0  0  0
 17 47  1  0  0  0  0
 18 23  1  6  0  0  0
 19 22  1  0  0  0  0
 19 48  1  1  0  0  0
 19 49  1  6  0  0  0
 20 50  1  0  0  0  0
 20 51  1  0  0  0  0
 20 52  1  6  0  0  0
 21 53  1  6  0  0  0
 21 54  1  0  0  0  0
 21 55  1  0  0  0  0
 22 56  1  0  0  0  0
 23 24  2  0  0  0  0
 23 25  1  0  0  0  0
 25 57  1  6  0  0  0
 25 58  1  0  0  0  0
 25 59  1  1  0  0  0
M  END
>  <Formula> (152)
C22H34O3

>  <Name> (152)
EPICANDICANDIOL 7-BETA-ACETATE

>  <Compound classification> (152)
Diterpene

>  <Microorganism> (152)
Bacillus subtilis

>  <Microorganism classification> (152)
Bac+

>  <ADT evaluation> (152)
2

>  <Method abbreviation> (152)
ADT

>  <Ref-Nr> (152)
6271

>  <Marker> (152)
0

>  <Method> (152)
Agar diffusion test; Medium: Mueller-Hinton agar; Inoculum size: ---; disk diameter: 5 mm; Incubation temperature: 37 degrees Centigrade; Incubation time: 24h; compound dose: 0.25, 0.5, 1, 5 mg/ml solutions per disk

>  <Reference> (152)
Darias, V., Bravo, I., Rabanal, R., Sanchez-Mateao, C.C., Martin-Herera, D.A.: Cytostatic and Antibacterial Activity of some Compounds Isolated from Several Lamiaceae Species from the Canary Islands; Planta Medica 56, 70-2 (1990)

>  <mol_id> (152)
2719

>  <MolWeight> (152)
346.50

>  <Nickname> (152)
Epicandicandiol 7-beta-acetate

$$$$

csChmFindW11180110282D

 59 62  0  0  0  0  0  0  0  0999 V2000
    1.5199    6.8795    2.1870 C   0  0  0  0  0  0  0  0  0  0  0  0
    1.3867    4.9247    2.3963 C   0  0  0  0  0  0  0  0  0  0  0  0
    2.5432    3.9239    1.1118 C   0  0  0  0  0  0  0  0  0  0  0  0
    4.4278    4.5995    1.2905 C   0  0  0  0  0  0  0  0  0  0  0  0
    4.6455    6.5852    1.0558 C   0  0  0  0  0  0  0  0  0  0  0  0
    3.3825    7.5185    2.3066 C   0  0  0  0  0  0  0  0  0  0  0  0
    5.7122    3.5523    0.1988 C   0  0  0  0  0  0  0  0  0  0  0  0
    7.2418    4.6085   -0.5011 C   0  0  0  0  0  0  0  0  0  0  0  0
    7.9667    5.9696    0.7517 C   0  0  0  0  0  0  0  0  0  0  0  0
    6.5185    7.0155    1.6805 C   0  0  0  0  0  0  0  0  0  0  0  0
   10.0791    8.1610    1.3299 C   0  0  0  0  0  0  0  0  0  0  0  0
    8.7766    9.4262    2.1471 C   0  0  0  0  0  0  0  0  0  0  0  0
    6.8962    8.9723    1.7052 C   0  0  0  0  0  0  0  0  0  0  0  0
    9.1875    7.2494   -0.2157 C   0  0  0  0  0  0  0  0  0  0  0  0
    9.2120    5.2078    2.1560 C   0  0  0  0  0  0  0  0  0  0  0  0
   10.4408    6.6743    2.5722 C   0  0  0  0  0  0  0  0  0  0  0  0
   11.6562    6.6604    3.8092 C   0  0  0  0  0  0  0  0  0  0  0  0
    8.6501    3.4116   -0.8999 O   0  0  0  0  0  0  0  0  0  0  0  0
    2.5584    1.9864    1.6608 C   0  0  0  0  0  0  0  0  0  0  0  0
    4.2765    7.1844   -0.7998 C   0  0  0  0  0  0  0  0  0  0  0  0
    1.7844    4.0445   -0.7170 C   0  0  0  0  0  0  0  0  0  0  0  0
    0.8041    1.4078    1.7999 O   0  0  0  0  0  0  0  0  0  0  0  0
    8.5917    2.5516   -2.4598 C   0  0  0  0  0  0  0  0  0  0  0  0
    7.3500    2.8056   -3.4508 O   0  0  0  0  0  0  0  0  0  0  0  0
   10.1175    1.3755   -2.7246 C   0  0  0  0  0  0  0  0  0  0  0  0
    0.7329    7.5241    3.2422 H   0  0  0  0  0  0  0  0  0  0  0  0
    0.9272    7.2885    0.9129 H   0  0  0  0  0  0  0  0  0  0  0  0
    0.0000    4.4961    2.2043 H   0  0  0  0  0  0  0  0  0  0  0  0
    1.7720    4.5561    3.7603 H   0  0  0  0  0  0  0  0  0  0  0  0
    4.7830    4.3484    2.7065 H   0  0  0  0  0  0  0  0  0  0  0  0
    3.8513    7.3359    3.6823 H   0  0  0  0  0  0  0  0  0  0  0  0
    3.4089    8.9531    2.0161 H   0  0  0  0  0  0  0  0  0  0  0  0
    5.0545    2.9366   -0.9568 H   0  0  0  0  0  0  0  0  0  0  0  0
    6.2341    2.4550    1.0194 H   0  0  0  0  0  0  0  0  0  0  0  0
    6.8621    5.2807   -1.7553 H   0  0  0  0  0  0  0  0  0  0  0  0
    6.5479    6.6014    3.1002 H   0  0  0  0  0  0  0  0  0  0  0  0
   11.3014    8.8517    0.9398 H   0  0  0  0  0  0  0  0  0  0  0  0
    9.0536   10.7808    1.6680 H   0  0  0  0  0  0  0  0  0  0  0  0
    8.9549    9.4358    3.5992 H   0  0  0  0  0  0  0  0  0  0  0  0
    6.0263    9.6009    2.7029 H   0  0  0  0  0  0  0  0  0  0  0  0
    6.5584    9.5752    0.4163 H   0  0  0  0  0  0  0  0  0  0  0  0
    8.4734    8.1676   -1.0857 H   0  0  0  0  0  0  0  0  0  0  0  0
   10.1544    6.5075   -1.0157 H   0  0  0  0  0  0  0  0  0  0  0  0
    9.9578    4.0742    1.6127 H   0  0  0  0  0  0  0  0  0  0  0  0
    8.4902    4.7437    3.3337 H   0  0  0  0  0  0  0  0  0  0  0  0
   11.8550    5.5369    4.6739 H   0  0  0  0  0  0  0  0  0  0  0  0
   12.5289    7.7721    4.0364 H   0  0  0  0  0  0  0  0  0  0  0  0
    3.2244    1.8308    2.9572 H   0  0  0  0  0  0  0  0  0  0  0  0
    3.2682    1.1899    0.6567 H   0  0  0  0  0  0  0  0  0  0  0  0
    5.1674    8.2643   -1.1991 H   0  0  0  0  0  0  0  0  0  0  0  0
    2.9074    7.6716   -0.9243 H   0  0  0  0  0  0  0  0  0  0  0  0
    4.4305    6.0932   -1.7535 H   0  0  0  0  0  0  0  0  0  0  0  0
    2.7812    3.7571   -1.7377 H   0  0  0  0  0  0  0  0  0  0  0  0
    1.2452    5.3727   -0.9727 H   0  0  0  0  0  0  0  0  0  0  0  0
    0.6964    3.0812   -0.8549 H   0  0  0  0  0  0  0  0  0  0  0  0
    0.8567    0.1696    2.0143 H   0  0  0  0  0  0  0  0  0  0  0  0
   10.5815    1.5005   -4.1006 H   0  0  0  0  0  0  0  0  0  0  0  0
    9.6954    0.0000   -2.4857 H   0  0  0  0  0  0  0  0  0  0  0  0
   11.1986    1.7105   -1.8076 H   0  0  0  0  0  0  0  0  0  0  0  0
  1  2  1  0  0  0  0
  1  6  1  0  0  0  0
  1 26  1  1  0  0  0
  1 27  1  6  0  0  0
  2  3  1  6  0  0  0
  2 28  1  0  0  0  0
  2 29  1  1  0  0  0
  3  4  1  0  0  0  0
  3 19  1  0  0  0  0
  3 21  1  6  0  0  0
  4  5  1  0  0  0  0
  4  7  1  6  0  0  0
  4 30  1  1  0  0  0
  5  6  1  1  0  0  0
  5 10  1  0  0  0  0
  5 20  1  6  0  0  0
  6 31  1  1  0  0  0
  6 32  1  0  0  0  0
  7  8  1  0  0  0  0
  7 33  1  6  0  0  0
  7 34  1  1  0  0  0
  8  9  1  1  0  0  0
  8 18  1  0  0  0  0
  8 35  1  6  0  0  0
  9 10  1  1  0  0  0
  9 14  1  6  0  0  0
  9 15  1  1  0  0  0
 10 13  1  0  0  0  0
 10 36  1  1  0  0  0
 11 12  1  0  0  0  0
 11 14  1  6  0  0  0
 11 16  1  1  0  0  0
 11 37  1  0  0  0  0
 12 13  1  0  0  0  0
 12 38  1  0  0  0  0
 12 39  1  1  0  0  0
 13 40  1  1  0  0  0
 13 41  1  6  0  0  0
 14 42  1  6  0  0  0
 14 43  1  6  0  0  0
 15 16  1  0  0  0  0
 15 44  1  0  0  0  0
 15 45  1  1  0  0  0
 16 17  2  0  0  0  0
 17 46  1  1  0  0  0
 17 47  1  0  0  0  0
 18 23  1  6  0  0  0
 19 22  1  0  0  0  0
 19 48  1  1  0  0  0
 19 49  1  6  0  0  0
 20 50  1  0  0  0  0
 20 51  1  0  0  0  0
 20 52  1  6  0  0  0
 21 53  1  6  0  0  0
 21 54  1  0  0  0  0
 21 55  1  0  0  0  0
 22 56  1  0  0  0  0
 23 24  2  0  0  0  0
 23 25  1  0  0  0  0
 25 57  1  6  0  0  0
 25 58  1  0  0  0  0
 25 59  1  1  0  0  0
M  END
>  <Formula> (153)
C22H34O3

>  <Name> (153)
EPICANDICANDIOL 7-BETA-ACETATE

>  <Compound classification> (153)
Diterpene

>  <Microorganism> (153)
Micrococcus luteus

>  <Microorganism classification> (153)
Bac+

>  <ADT evaluation> (153)
2

>  <Method abbreviation> (153)
ADT

>  <Ref-Nr> (153)
6271

>  <Marker> (153)
0

>  <Method> (153)
Agar diffusion test; Medium: Mueller-Hinton agar; Inoculum size: ---; disk diameter: 5 mm; Incubation temperature: 37 degrees Centigrade; Incubation time: 24h; compound dose: 0.25, 0.5, 1, 5 mg/ml solutions per disk

>  <Reference> (153)
Darias, V., Bravo, I., Rabanal, R., Sanchez-Mateao, C.C., Martin-Herera, D.A.: Cytostatic and Antibacterial Activity of some Compounds Isolated from Several Lamiaceae Species from the Canary Islands; Planta Medica 56, 70-2 (1990)

>  <mol_id> (153)
2719

>  <MolWeight> (153)
346.50

>  <Nickname> (153)
Epicandicandiol 7-beta-acetate

$$$$

csChmFindW11180110282D

 59 62  0  0  0  0  0  0  0  0999 V2000
    1.5199    6.8795    2.1870 C   0  0  0  0  0  0  0  0  0  0  0  0
    1.3867    4.9247    2.3963 C   0  0  0  0  0  0  0  0  0  0  0  0
    2.5432    3.9239    1.1118 C   0  0  0  0  0  0  0  0  0  0  0  0
    4.4278    4.5995    1.2905 C   0  0  0  0  0  0  0  0  0  0  0  0
    4.6455    6.5852    1.0558 C   0  0  0  0  0  0  0  0  0  0  0  0
    3.3825    7.5185    2.3066 C   0  0  0  0  0  0  0  0  0  0  0  0
    5.7122    3.5523    0.1988 C   0  0  0  0  0  0  0  0  0  0  0  0
    7.2418    4.6085   -0.5011 C   0  0  0  0  0  0  0  0  0  0  0  0
    7.9667    5.9696    0.7517 C   0  0  0  0  0  0  0  0  0  0  0  0
    6.5185    7.0155    1.6805 C   0  0  0  0  0  0  0  0  0  0  0  0
   10.0791    8.1610    1.3299 C   0  0  0  0  0  0  0  0  0  0  0  0
    8.7766    9.4262    2.1471 C   0  0  0  0  0  0  0  0  0  0  0  0
    6.8962    8.9723    1.7052 C   0  0  0  0  0  0  0  0  0  0  0  0
    9.1875    7.2494   -0.2157 C   0  0  0  0  0  0  0  0  0  0  0  0
    9.2120    5.2078    2.1560 C   0  0  0  0  0  0  0  0  0  0  0  0
   10.4408    6.6743    2.5722 C   0  0  0  0  0  0  0  0  0  0  0  0
   11.6562    6.6604    3.8092 C   0  0  0  0  0  0  0  0  0  0  0  0
    8.6501    3.4116   -0.8999 O   0  0  0  0  0  0  0  0  0  0  0  0
    2.5584    1.9864    1.6608 C   0  0  0  0  0  0  0  0  0  0  0  0
    4.2765    7.1844   -0.7998 C   0  0  0  0  0  0  0  0  0  0  0  0
    1.7844    4.0445   -0.7170 C   0  0  0  0  0  0  0  0  0  0  0  0
    0.8041    1.4078    1.7999 O   0  0  0  0  0  0  0  0  0  0  0  0
    8.5917    2.5516   -2.4598 C   0  0  0  0  0  0  0  0  0  0  0  0
    7.3500    2.8056   -3.4508 O   0  0  0  0  0  0  0  0  0  0  0  0
   10.1175    1.3755   -2.7246 C   0  0  0  0  0  0  0  0  0  0  0  0
    0.7329    7.5241    3.2422 H   0  0  0  0  0  0  0  0  0  0  0  0
    0.9272    7.2885    0.9129 H   0  0  0  0  0  0  0  0  0  0  0  0
    0.0000    4.4961    2.2043 H   0  0  0  0  0  0  0  0  0  0  0  0
    1.7720    4.5561    3.7603 H   0  0  0  0  0  0  0  0  0  0  0  0
    4.7830    4.3484    2.7065 H   0  0  0  0  0  0  0  0  0  0  0  0
    3.8513    7.3359    3.6823 H   0  0  0  0  0  0  0  0  0  0  0  0
    3.4089    8.9531    2.0161 H   0  0  0  0  0  0  0  0  0  0  0  0
    5.0545    2.9366   -0.9568 H   0  0  0  0  0  0  0  0  0  0  0  0
    6.2341    2.4550    1.0194 H   0  0  0  0  0  0  0  0  0  0  0  0
    6.8621    5.2807   -1.7553 H   0  0  0  0  0  0  0  0  0  0  0  0
    6.5479    6.6014    3.1002 H   0  0  0  0  0  0  0  0  0  0  0  0
   11.3014    8.8517    0.9398 H   0  0  0  0  0  0  0  0  0  0  0  0
    9.0536   10.7808    1.6680 H   0  0  0  0  0  0  0  0  0  0  0  0
    8.9549    9.4358    3.5992 H   0  0  0  0  0  0  0  0  0  0  0  0
    6.0263    9.6009    2.7029 H   0  0  0  0  0  0  0  0  0  0  0  0
    6.5584    9.5752    0.4163 H   0  0  0  0  0  0  0  0  0  0  0  0
    8.4734    8.1676   -1.0857 H   0  0  0  0  0  0  0  0  0  0  0  0
   10.1544    6.5075   -1.0157 H   0  0  0  0  0  0  0  0  0  0  0  0
    9.9578    4.0742    1.6127 H   0  0  0  0  0  0  0  0  0  0  0  0
    8.4902    4.7437    3.3337 H   0  0  0  0  0  0  0  0  0  0  0  0
   11.8550    5.5369    4.6739 H   0  0  0  0  0  0  0  0  0  0  0  0
   12.5289    7.7721    4.0364 H   0  0  0  0  0  0  0  0  0  0  0  0
    3.2244    1.8308    2.9572 H   0  0  0  0  0  0  0  0  0  0  0  0
    3.2682    1.1899    0.6567 H   0  0  0  0  0  0  0  0  0  0  0  0
    5.1674    8.2643   -1.1991 H   0  0  0  0  0  0  0  0  0  0  0  0
    2.9074    7.6716   -0.9243 H   0  0  0  0  0  0  0  0  0  0  0  0
    4.4305    6.0932   -1.7535 H   0  0  0  0  0  0  0  0  0  0  0  0
    2.7812    3.7571   -1.7377 H   0  0  0  0  0  0  0  0  0  0  0  0
    1.2452    5.3727   -0.9727 H   0  0  0  0  0  0  0  0  0  0  0  0
    0.6964    3.0812   -0.8549 H   0  0  0  0  0  0  0  0  0  0  0  0
    0.8567    0.1696    2.0143 H   0  0  0  0  0  0  0  0  0  0  0  0
   10.5815    1.5005   -4.1006 H   0  0  0  0  0  0  0  0  0  0  0  0
    9.6954    0.0000   -2.4857 H   0  0  0  0  0  0  0  0  0  0  0  0
   11.1986    1.7105   -1.8076 H   0  0  0  0  0  0  0  0  0  0  0  0
  1  2  1  0  0  0  0
  1  6  1  0  0  0  0
  1 26  1  1  0  0  0
  1 27  1  6  0  0  0
  2  3  1  6  0  0  0
  2 28  1  0  0  0  0
  2 29  1  1  0  0  0
  3  4  1  0  0  0  0
  3 19  1  0  0  0  0
  3 21  1  6  0  0  0
  4  5  1  0  0  0  0
  4  7  1  6  0  0  0
  4 30  1  1  0  0  0
  5  6  1  1  0  0  0
  5 10  1  0  0  0  0
  5 20  1  6  0  0  0
  6 31  1  1  0  0  0
  6 32  1  0  0  0  0
  7  8  1  0  0  0  0
  7 33  1  6  0  0  0
  7 34  1  1  0  0  0
  8  9  1  1  0  0  0
  8 18  1  0  0  0  0
  8 35  1  6  0  0  0
  9 10  1  1  0  0  0
  9 14  1  6  0  0  0
  9 15  1  1  0  0  0
 10 13  1  0  0  0  0
 10 36  1  1  0  0  0
 11 12  1  0  0  0  0
 11 14  1  6  0  0  0
 11 16  1  1  0  0  0
 11 37  1  0  0  0  0
 12 13  1  0  0  0  0
 12 38  1  0  0  0  0
 12 39  1  1  0  0  0
 13 40  1  1  0  0  0
 13 41  1  6  0  0  0
 14 42  1  6  0  0  0
 14 43  1  6  0  0  0
 15 16  1  0  0  0  0
 15 44  1  0  0  0  0
 15 45  1  1  0  0  0
 16 17  2  0  0  0  0
 17 46  1  1  0  0  0
 17 47  1  0  0  0  0
 18 23  1  6  0  0  0
 19 22  1  0  0  0  0
 19 48  1  1  0  0  0
 19 49  1  6  0  0  0
 20 50  1  0  0  0  0
 20 51  1  0  0  0  0
 20 52  1  6  0  0  0
 21 53  1  6  0  0  0
 21 54  1  0  0  0  0
 21 55  1  0  0  0  0
 22 56  1  0  0  0  0
 23 24  2  0  0  0  0
 23 25  1  0  0  0  0
 25 57  1  6  0  0  0
 25 58  1  0  0  0  0
 25 59  1  1  0  0  0
M  END
>  <Formula> (154)
C22H34O3

>  <Name> (154)
EPICANDICANDIOL 7-BETA-ACETATE

>  <Compound classification> (154)
Diterpene

>  <Microorganism> (154)
Staphylococcus aureus

>  <Microorganism classification> (154)
Bac+

>  <ADT evaluation> (154)
2

>  <Method abbreviation> (154)
ADT

>  <Ref-Nr> (154)
6271

>  <Marker> (154)
0

>  <Method> (154)
Agar diffusion test; Medium: Mueller-Hinton agar; Inoculum size: ---; disk diameter: 5 mm; Incubation temperature: 37 degrees Centigrade; Incubation time: 24h; compound dose: 0.25, 0.5, 1, 5 mg/ml solutions per disk

>  <Reference> (154)
Darias, V., Bravo, I., Rabanal, R., Sanchez-Mateao, C.C., Martin-Herera, D.A.: Cytostatic and Antibacterial Activity of some Compounds Isolated from Several Lamiaceae Species from the Canary Islands; Planta Medica 56, 70-2 (1990)

>  <mol_id> (154)
2719

>  <MolWeight> (154)
346.50

>  <Nickname> (154)
Epicandicandiol 7-beta-acetate

$$$$

csChmFindW11180110282D

 59 62  0  0  0  0  0  0  0  0999 V2000
    1.5199    6.8795    2.1870 C   0  0  0  0  0  0  0  0  0  0  0  0
    1.3867    4.9247    2.3963 C   0  0  0  0  0  0  0  0  0  0  0  0
    2.5432    3.9239    1.1118 C   0  0  0  0  0  0  0  0  0  0  0  0
    4.4278    4.5995    1.2905 C   0  0  0  0  0  0  0  0  0  0  0  0
    4.6455    6.5852    1.0558 C   0  0  0  0  0  0  0  0  0  0  0  0
    3.3825    7.5185    2.3066 C   0  0  0  0  0  0  0  0  0  0  0  0
    5.7122    3.5523    0.1988 C   0  0  0  0  0  0  0  0  0  0  0  0
    7.2418    4.6085   -0.5011 C   0  0  0  0  0  0  0  0  0  0  0  0
    7.9667    5.9696    0.7517 C   0  0  0  0  0  0  0  0  0  0  0  0
    6.5185    7.0155    1.6805 C   0  0  0  0  0  0  0  0  0  0  0  0
   10.0791    8.1610    1.3299 C   0  0  0  0  0  0  0  0  0  0  0  0
    8.7766    9.4262    2.1471 C   0  0  0  0  0  0  0  0  0  0  0  0
    6.8962    8.9723    1.7052 C   0  0  0  0  0  0  0  0  0  0  0  0
    9.1875    7.2494   -0.2157 C   0  0  0  0  0  0  0  0  0  0  0  0
    9.2120    5.2078    2.1560 C   0  0  0  0  0  0  0  0  0  0  0  0
   10.4408    6.6743    2.5722 C   0  0  0  0  0  0  0  0  0  0  0  0
   11.6562    6.6604    3.8092 C   0  0  0  0  0  0  0  0  0  0  0  0
    8.6501    3.4116   -0.8999 O   0  0  0  0  0  0  0  0  0  0  0  0
    2.5584    1.9864    1.6608 C   0  0  0  0  0  0  0  0  0  0  0  0
    4.2765    7.1844   -0.7998 C   0  0  0  0  0  0  0  0  0  0  0  0
    1.7844    4.0445   -0.7170 C   0  0  0  0  0  0  0  0  0  0  0  0
    0.8041    1.4078    1.7999 O   0  0  0  0  0  0  0  0  0  0  0  0
    8.5917    2.5516   -2.4598 C   0  0  0  0  0  0  0  0  0  0  0  0
    7.3500    2.8056   -3.4508 O   0  0  0  0  0  0  0  0  0  0  0  0
   10.1175    1.3755   -2.7246 C   0  0  0  0  0  0  0  0  0  0  0  0
    0.7329    7.5241    3.2422 H   0  0  0  0  0  0  0  0  0  0  0  0
    0.9272    7.2885    0.9129 H   0  0  0  0  0  0  0  0  0  0  0  0
    0.0000    4.4961    2.2043 H   0  0  0  0  0  0  0  0  0  0  0  0
    1.7720    4.5561    3.7603 H   0  0  0  0  0  0  0  0  0  0  0  0
    4.7830    4.3484    2.7065 H   0  0  0  0  0  0  0  0  0  0  0  0
    3.8513    7.3359    3.6823 H   0  0  0  0  0  0  0  0  0  0  0  0
    3.4089    8.9531    2.0161 H   0  0  0  0  0  0  0  0  0  0  0  0
    5.0545    2.9366   -0.9568 H   0  0  0  0  0  0  0  0  0  0  0  0
    6.2341    2.4550    1.0194 H   0  0  0  0  0  0  0  0  0  0  0  0
    6.8621    5.2807   -1.7553 H   0  0  0  0  0  0  0  0  0  0  0  0
    6.5479    6.6014    3.1002 H   0  0  0  0  0  0  0  0  0  0  0  0
   11.3014    8.8517    0.9398 H   0  0  0  0  0  0  0  0  0  0  0  0
    9.0536   10.7808    1.6680 H   0  0  0  0  0  0  0  0  0  0  0  0
    8.9549    9.4358    3.5992 H   0  0  0  0  0  0  0  0  0  0  0  0
    6.0263    9.6009    2.7029 H   0  0  0  0  0  0  0  0  0  0  0  0
    6.5584    9.5752    0.4163 H   0  0  0  0  0  0  0  0  0  0  0  0
    8.4734    8.1676   -1.0857 H   0  0  0  0  0  0  0  0  0  0  0  0
   10.1544    6.5075   -1.0157 H   0  0  0  0  0  0  0  0  0  0  0  0
    9.9578    4.0742    1.6127 H   0  0  0  0  0  0  0  0  0  0  0  0
    8.4902    4.7437    3.3337 H   0  0  0  0  0  0  0  0  0  0  0  0
   11.8550    5.5369    4.6739 H   0  0  0  0  0  0  0  0  0  0  0  0
   12.5289    7.7721    4.0364 H   0  0  0  0  0  0  0  0  0  0  0  0
    3.2244    1.8308    2.9572 H   0  0  0  0  0  0  0  0  0  0  0  0
    3.2682    1.1899    0.6567 H   0  0  0  0  0  0  0  0  0  0  0  0
    5.1674    8.2643   -1.1991 H   0  0  0  0  0  0  0  0  0  0  0  0
    2.9074    7.6716   -0.9243 H   0  0  0  0  0  0  0  0  0  0  0  0
    4.4305    6.0932   -1.7535 H   0  0  0  0  0  0  0  0  0  0  0  0
    2.7812    3.7571   -1.7377 H   0  0  0  0  0  0  0  0  0  0  0  0
    1.2452    5.3727   -0.9727 H   0  0  0  0  0  0  0  0  0  0  0  0
    0.6964    3.0812   -0.8549 H   0  0  0  0  0  0  0  0  0  0  0  0
    0.8567    0.1696    2.0143 H   0  0  0  0  0  0  0  0  0  0  0  0
   10.5815    1.5005   -4.1006 H   0  0  0  0  0  0  0  0  0  0  0  0
    9.6954    0.0000   -2.4857 H   0  0  0  0  0  0  0  0  0  0  0  0
   11.1986    1.7105   -1.8076 H   0  0  0  0  0  0  0  0  0  0  0  0
  1  2  1  0  0  0  0
  1  6  1  0  0  0  0
  1 26  1  1  0  0  0
  1 27  1  6  0  0  0
  2  3  1  6  0  0  0
  2 28  1  0  0  0  0
  2 29  1  1  0  0  0
  3  4  1  0  0  0  0
  3 19  1  0  0  0  0
  3 21  1  6  0  0  0
  4  5  1  0  0  0  0
  4  7  1  6  0  0  0
  4 30  1  1  0  0  0
  5  6  1  1  0  0  0
  5 10  1  0  0  0  0
  5 20  1  6  0  0  0
  6 31  1  1  0  0  0
  6 32  1  0  0  0  0
  7  8  1  0  0  0  0
  7 33  1  6  0  0  0
  7 34  1  1  0  0  0
  8  9  1  1  0  0  0
  8 18  1  0  0  0  0
  8 35  1  6  0  0  0
  9 10  1  1  0  0  0
  9 14  1  6  0  0  0
  9 15  1  1  0  0  0
 10 13  1  0  0  0  0
 10 36  1  1  0  0  0
 11 12  1  0  0  0  0
 11 14  1  6  0  0  0
 11 16  1  1  0  0  0
 11 37  1  0  0  0  0
 12 13  1  0  0  0  0
 12 38  1  0  0  0  0
 12 39  1  1  0  0  0
 13 40  1  1  0  0  0
 13 41  1  6  0  0  0
 14 42  1  6  0  0  0
 14 43  1  6  0  0  0
 15 16  1  0  0  0  0
 15 44  1  0  0  0  0
 15 45  1  1  0  0  0
 16 17  2  0  0  0  0
 17 46  1  1  0  0  0
 17 47  1  0  0  0  0
 18 23  1  6  0  0  0
 19 22  1  0  0  0  0
 19 48  1  1  0  0  0
 19 49  1  6  0  0  0
 20 50  1  0  0  0  0
 20 51  1  0  0  0  0
 20 52  1  6  0  0  0
 21 53  1  6  0  0  0
 21 54  1  0  0  0  0
 21 55  1  0  0  0  0
 22 56  1  0  0  0  0
 23 24  2  0  0  0  0
 23 25  1  0  0  0  0
 25 57  1  6  0  0  0
 25 58  1  0  0  0  0
 25 59  1  1  0  0  0
M  END
>  <Formula> (155)
C22H34O3

>  <Name> (155)
EPICANDICANDIOL 7-BETA-ACETATE

>  <Compound classification> (155)
Diterpene

>  <Microorganism> (155)
Eschericia coli

>  <Microorganism classification> (155)
Bac-

>  <ADT evaluation> (155)
1

>  <Method abbreviation> (155)
ADT

>  <Ref-Nr> (155)
6271

>  <Marker> (155)
0

>  <Method> (155)
Agar diffusion test; Medium: Mueller-Hinton agar; Inoculum size: ---; disk diameter: 5 mm; Incubation temperature: 37 degrees Centigrade; Incubation time: 24h; compound dose: 0.25, 0.5, 1, 5 mg/ml solutions per disk

>  <Reference> (155)
Darias, V., Bravo, I., Rabanal, R., Sanchez-Mateao, C.C., Martin-Herera, D.A.: Cytostatic and Antibacterial Activity of some Compounds Isolated from Several Lamiaceae Species from the Canary Islands; Planta Medica 56, 70-2 (1990)

>  <mol_id> (155)
2719

>  <MolWeight> (155)
346.50

>  <Nickname> (155)
Epicandicandiol 7-beta-acetate

$$$$

csChmFindW11180110282D

 59 62  0  0  0  0  0  0  0  0999 V2000
    1.5199    6.8795    2.1870 C   0  0  0  0  0  0  0  0  0  0  0  0
    1.3867    4.9247    2.3963 C   0  0  0  0  0  0  0  0  0  0  0  0
    2.5432    3.9239    1.1118 C   0  0  0  0  0  0  0  0  0  0  0  0
    4.4278    4.5995    1.2905 C   0  0  0  0  0  0  0  0  0  0  0  0
    4.6455    6.5852    1.0558 C   0  0  0  0  0  0  0  0  0  0  0  0
    3.3825    7.5185    2.3066 C   0  0  0  0  0  0  0  0  0  0  0  0
    5.7122    3.5523    0.1988 C   0  0  0  0  0  0  0  0  0  0  0  0
    7.2418    4.6085   -0.5011 C   0  0  0  0  0  0  0  0  0  0  0  0
    7.9667    5.9696    0.7517 C   0  0  0  0  0  0  0  0  0  0  0  0
    6.5185    7.0155    1.6805 C   0  0  0  0  0  0  0  0  0  0  0  0
   10.0791    8.1610    1.3299 C   0  0  0  0  0  0  0  0  0  0  0  0
    8.7766    9.4262    2.1471 C   0  0  0  0  0  0  0  0  0  0  0  0
    6.8962    8.9723    1.7052 C   0  0  0  0  0  0  0  0  0  0  0  0
    9.1875    7.2494   -0.2157 C   0  0  0  0  0  0  0  0  0  0  0  0
    9.2120    5.2078    2.1560 C   0  0  0  0  0  0  0  0  0  0  0  0
   10.4408    6.6743    2.5722 C   0  0  0  0  0  0  0  0  0  0  0  0
   11.6562    6.6604    3.8092 C   0  0  0  0  0  0  0  0  0  0  0  0
    8.6501    3.4116   -0.8999 O   0  0  0  0  0  0  0  0  0  0  0  0
    2.5584    1.9864    1.6608 C   0  0  0  0  0  0  0  0  0  0  0  0
    4.2765    7.1844   -0.7998 C   0  0  0  0  0  0  0  0  0  0  0  0
    1.7844    4.0445   -0.7170 C   0  0  0  0  0  0  0  0  0  0  0  0
    0.8041    1.4078    1.7999 O   0  0  0  0  0  0  0  0  0  0  0  0
    8.5917    2.5516   -2.4598 C   0  0  0  0  0  0  0  0  0  0  0  0
    7.3500    2.8056   -3.4508 O   0  0  0  0  0  0  0  0  0  0  0  0
   10.1175    1.3755   -2.7246 C   0  0  0  0  0  0  0  0  0  0  0  0
    0.7329    7.5241    3.2422 H   0  0  0  0  0  0  0  0  0  0  0  0
    0.9272    7.2885    0.9129 H   0  0  0  0  0  0  0  0  0  0  0  0
    0.0000    4.4961    2.2043 H   0  0  0  0  0  0  0  0  0  0  0  0
    1.7720    4.5561    3.7603 H   0  0  0  0  0  0  0  0  0  0  0  0
    4.7830    4.3484    2.7065 H   0  0  0  0  0  0  0  0  0  0  0  0
    3.8513    7.3359    3.6823 H   0  0  0  0  0  0  0  0  0  0  0  0
    3.4089    8.9531    2.0161 H   0  0  0  0  0  0  0  0  0  0  0  0
    5.0545    2.9366   -0.9568 H   0  0  0  0  0  0  0  0  0  0  0  0
    6.2341    2.4550    1.0194 H   0  0  0  0  0  0  0  0  0  0  0  0
    6.8621    5.2807   -1.7553 H   0  0  0  0  0  0  0  0  0  0  0  0
    6.5479    6.6014    3.1002 H   0  0  0  0  0  0  0  0  0  0  0  0
   11.3014    8.8517    0.9398 H   0  0  0  0  0  0  0  0  0  0  0  0
    9.0536   10.7808    1.6680 H   0  0  0  0  0  0  0  0  0  0  0  0
    8.9549    9.4358    3.5992 H   0  0  0  0  0  0  0  0  0  0  0  0
    6.0263    9.6009    2.7029 H   0  0  0  0  0  0  0  0  0  0  0  0
    6.5584    9.5752    0.4163 H   0  0  0  0  0  0  0  0  0  0  0  0
    8.4734    8.1676   -1.0857 H   0  0  0  0  0  0  0  0  0  0  0  0
   10.1544    6.5075   -1.0157 H   0  0  0  0  0  0  0  0  0  0  0  0
    9.9578    4.0742    1.6127 H   0  0  0  0  0  0  0  0  0  0  0  0
    8.4902    4.7437    3.3337 H   0  0  0  0  0  0  0  0  0  0  0  0
   11.8550    5.5369    4.6739 H   0  0  0  0  0  0  0  0  0  0  0  0
   12.5289    7.7721    4.0364 H   0  0  0  0  0  0  0  0  0  0  0  0
    3.2244    1.8308    2.9572 H   0  0  0  0  0  0  0  0  0  0  0  0
    3.2682    1.1899    0.6567 H   0  0  0  0  0  0  0  0  0  0  0  0
    5.1674    8.2643   -1.1991 H   0  0  0  0  0  0  0  0  0  0  0  0
    2.9074    7.6716   -0.9243 H   0  0  0  0  0  0  0  0  0  0  0  0
    4.4305    6.0932   -1.7535 H   0  0  0  0  0  0  0  0  0  0  0  0
    2.7812    3.7571   -1.7377 H   0  0  0  0  0  0  0  0  0  0  0  0
    1.2452    5.3727   -0.9727 H   0  0  0  0  0  0  0  0  0  0  0  0
    0.6964    3.0812   -0.8549 H   0  0  0  0  0  0  0  0  0  0  0  0
    0.8567    0.1696    2.0143 H   0  0  0  0  0  0  0  0  0  0  0  0
   10.5815    1.5005   -4.1006 H   0  0  0  0  0  0  0  0  0  0  0  0
    9.6954    0.0000   -2.4857 H   0  0  0  0  0  0  0  0  0  0  0  0
   11.1986    1.7105   -1.8076 H   0  0  0  0  0  0  0  0  0  0  0  0
  1  2  1  0  0  0  0
  1  6  1  0  0  0  0
  1 26  1  1  0  0  0
  1 27  1  6  0  0  0
  2  3  1  6  0  0  0
  2 28  1  0  0  0  0
  2 29  1  1  0  0  0
  3  4  1  0  0  0  0
  3 19  1  0  0  0  0
  3 21  1  6  0  0  0
  4  5  1  0  0  0  0
  4  7  1  6  0  0  0
  4 30  1  1  0  0  0
  5  6  1  1  0  0  0
  5 10  1  0  0  0  0
  5 20  1  6  0  0  0
  6 31  1  1  0  0  0
  6 32  1  0  0  0  0
  7  8  1  0  0  0  0
  7 33  1  6  0  0  0
  7 34  1  1  0  0  0
  8  9  1  1  0  0  0
  8 18  1  0  0  0  0
  8 35  1  6  0  0  0
  9 10  1  1  0  0  0
  9 14  1  6  0  0  0
  9 15  1  1  0  0  0
 10 13  1  0  0  0  0
 10 36  1  1  0  0  0
 11 12  1  0  0  0  0
 11 14  1  6  0  0  0
 11 16  1  1  0  0  0
 11 37  1  0  0  0  0
 12 13  1  0  0  0  0
 12 38  1  0  0  0  0
 12 39  1  1  0  0  0
 13 40  1  1  0  0  0
 13 41  1  6  0  0  0
 14 42  1  6  0  0  0
 14 43  1  6  0  0  0
 15 16  1  0  0  0  0
 15 44  1  0  0  0  0
 15 45  1  1  0  0  0
 16 17  2  0  0  0  0
 17 46  1  1  0  0  0
 17 47  1  0  0  0  0
 18 23  1  6  0  0  0
 19 22  1  0  0  0  0
 19 48  1  1  0  0  0
 19 49  1  6  0  0  0
 20 50  1  0  0  0  0
 20 51  1  0  0  0  0
 20 52  1  6  0  0  0
 21 53  1  6  0  0  0
 21 54  1  0  0  0  0
 21 55  1  0  0  0  0
 22 56  1  0  0  0  0
 23 24  2  0  0  0  0
 23 25  1  0  0  0  0
 25 57  1  6  0  0  0
 25 58  1  0  0  0  0
 25 59  1  1  0  0  0
M  END
>  <Formula> (156)
C22H34O3

>  <Name> (156)
EPICANDICANDIOL 7-BETA-ACETATE

>  <Compound classification> (156)
Diterpene

>  <Microorganism> (156)
Pseudomonas aeruginosa

>  <Microorganism classification> (156)
Bac-

>  <ADT evaluation> (156)
1

>  <Method abbreviation> (156)
ADT

>  <Ref-Nr> (156)
6271

>  <Marker> (156)
0

>  <Method> (156)
Agar diffusion test; Medium: Mueller-Hinton agar; Inoculum size: ---; disk diameter: 5 mm; Incubation temperature: 37 degrees Centigrade; Incubation time: 24h; compound dose: 0.25, 0.5, 1, 5 mg/ml solutions per disk

>  <Reference> (156)
Darias, V., Bravo, I., Rabanal, R., Sanchez-Mateao, C.C., Martin-Herera, D.A.: Cytostatic and Antibacterial Activity of some Compounds Isolated from Several Lamiaceae Species from the Canary Islands; Planta Medica 56, 70-2 (1990)

>  <mol_id> (156)
2719

>  <MolWeight> (156)
346.50

>  <Nickname> (156)
Epicandicandiol 7-beta-acetate

$$$$

csChmFindW11180110282D

 54 56  0  0  0  0  0  0  0  0999 V2000
    1.4648    5.7231    0.8260 C   0  0  0  0  0  0  0  0  0  0  0  0
    1.2903    3.8280    1.1877 C   0  0  0  0  0  0  0  0  0  0  0  0
    2.6777    2.7334    0.3256 C   0  0  0  0  0  0  0  0  0  0  0  0
    4.4523    3.4886    0.7423 C   0  0  0  0  0  0  0  0  0  0  0  0
    4.6766    5.4312    0.4236 C   0  0  0  0  0  0  0  0  0  0  0  0
    3.2159    6.3923    1.3203 C   0  0  0  0  0  0  0  0  0  0  0  0
    5.9204    2.4863   -0.0649 C   0  0  0  0  0  0  0  0  0  0  0  0
    7.6195    2.9986    0.7230 C   0  0  0  0  0  0  0  0  0  0  0  0
    7.8968    4.9262    0.5512 C   0  0  0  0  0  0  0  0  0  0  0  0
    6.3851    5.9443    1.2862 C   0  0  0  0  0  0  0  0  0  0  0  0
    9.4437    5.2831    1.4732 O   0  0  0  0  0  0  0  0  0  0  0  0
    9.9411    7.0510    1.5302 C   0  0  0  0  0  0  0  0  0  0  0  0
    8.4663    8.2125    2.1012 C   0  0  0  0  0  0  0  0  0  0  0  0
    6.8089    7.8425    1.1591 C   0  0  0  0  0  0  0  0  0  0  0  0
   11.3899    7.0970    2.8500 C   0  0  0  0  0  0  0  0  0  0  0  0
   10.6247    7.5747   -0.2452 C   0  0  0  0  0  0  0  0  0  0  0  0
   11.2973    9.3674   -0.2796 C   0  0  0  0  0  0  0  0  0  0  0  0
   12.6688    9.9469    0.2583 O   0  0  0  0  0  0  0  0  0  0  0  0
   10.2293   10.5131   -1.0621 O   0  0  0  0  0  0  0  0  0  0  0  0
    4.6997    5.9197   -1.4625 C   0  0  0  0  0  0  0  0  0  0  0  0
    2.2942    2.5566   -1.5794 C   0  0  0  0  0  0  0  0  0  0  0  0
    2.5611    0.9384    1.1183 C   0  0  0  0  0  0  0  0  0  0  0  0
    0.4622    6.4381    1.5723 H   0  0  0  0  0  0  0  0  0  0  0  0
    1.2167    5.9833   -0.5670 H   0  0  0  0  0  0  0  0  0  0  0  0
    0.0000    3.3740    0.7421 H   0  0  0  0  0  0  0  0  0  0  0  0
    1.3557    3.6155    2.6104 H   0  0  0  0  0  0  0  0  0  0  0  0
    4.5831    3.3288    2.1830 H   0  0  0  0  0  0  0  0  0  0  0  0
    3.3824    6.2756    2.7451 H   0  0  0  0  0  0  0  0  0  0  0  0
    3.2926    7.7902    0.9875 H   0  0  0  0  0  0  0  0  0  0  0  0
    5.9605    2.7064   -1.4850 H   0  0  0  0  0  0  0  0  0  0  0  0
    5.7248    1.0773    0.1435 H   0  0  0  0  0  0  0  0  0  0  0  0
    8.6961    2.3055    0.0710 H   0  0  0  0  0  0  0  0  0  0  0  0
    7.6560    2.6388    2.1149 H   0  0  0  0  0  0  0  0  0  0  0  0
    8.0952    5.2712   -0.8371 H   0  0  0  0  0  0  0  0  0  0  0  0
    6.2782    5.6124    2.6905 H   0  0  0  0  0  0  0  0  0  0  0  0
    8.8486    9.5825    1.8871 H   0  0  0  0  0  0  0  0  0  0  0  0
    8.2591    8.0259    3.5128 H   0  0  0  0  0  0  0  0  0  0  0  0
    5.7527    8.6257    1.7394 H   0  0  0  0  0  0  0  0  0  0  0  0
    6.9376    8.2366   -0.2180 H   0  0  0  0  0  0  0  0  0  0  0  0
   11.9594    8.4093    2.8904 H   0  0  0  0  0  0  0  0  0  0  0  0
   12.4046    6.1538    2.4909 H   0  0  0  0  0  0  0  0  0  0  0  0
   10.8855    6.7514    4.1431 H   0  0  0  0  0  0  0  0  0  0  0  0
    9.5736    7.4513   -1.2199 H   0  0  0  0  0  0  0  0  0  0  0  0
   11.6973    6.6855   -0.6072 H   0  0  0  0  0  0  0  0  0  0  0  0
   10.7515   11.6437   -1.0629 H   0  0  0  0  0  0  0  0  0  0  0  0
    4.8423    7.3395   -1.6011 H   0  0  0  0  0  0  0  0  0  0  0  0
    3.4809    5.5413   -2.1071 H   0  0  0  0  0  0  0  0  0  0  0  0
    5.7820    5.2894   -2.1540 H   0  0  0  0  0  0  0  0  0  0  0  0
    3.4759    2.2270   -2.3150 H   0  0  0  0  0  0  0  0  0  0  0  0
    1.7380    3.7611   -2.1164 H   0  0  0  0  0  0  0  0  0  0  0  0
    1.3308    1.5147   -1.7906 H   0  0  0  0  0  0  0  0  0  0  0  0
    3.3374    0.0000    0.3669 H   0  0  0  0  0  0  0  0  0  0  0  0
    1.1991    0.4936    1.1139 H   0  0  0  0  0  0  0  0  0  0  0  0
    3.0292    0.9456    2.4707 H   0  0  0  0  0  0  0  0  0  0  0  0
  1  2  1  0  0  0  0
  1  6  1  0  0  0  0
  1 23  1  1  0  0  0
  1 24  1  6  0  0  0
  2  3  1  0  0  0  0
  2 25  1  0  0  0  0
  2 26  1  1  0  0  0
  3  4  1  0  0  0  0
  3 21  1  6  0  0  0
  3 22  1  0  0  0  0
  4  5  1  0  0  0  0
  4  7  1  0  0  0  0
  4 27  1  1  0  0  0
  5  6  1  1  0  0  0
  5 10  1  0  0  0  0
  5 20  1  6  0  0  0
  6 28  1  1  0  0  0
  6 29  1  0  0  0  0
  7  8  1  0  0  0  0
  7 30  1  6  0  0  0
  7 31  1  0  0  0  0
  8  9  1  0  0  0  0
  8 32  1  6  0  0  0
  8 33  1  1  0  0  0
  9 10  1  0  0  0  0
  9 11  1  1  0  0  0
  9 34  1  6  0  0  0
 10 14  1  0  0  0  0
 10 35  1  1  0  0  0
 11 12  1  0  0  0  0
 12 13  1  0  0  0  0
 12 15  1  1  0  0  0
 12 16  1  6  0  0  0
 13 14  1  6  0  0  0
 13 36  1  0  0  0  0
 13 37  1  1  0  0  0
 14 38  1  0  0  0  0
 14 39  1  6  0  0  0
 15 40  1  0  0  0  0
 15 41  1  0  0  0  0
 15 42  1  1  0  0  0
 16 17  1  0  0  0  0
 16 43  1  6  0  0  0
 16 44  1  0  0  0  0
 17 18  2  0  0  0  0
 17 19  1  0  0  0  0
 19 45  1  0  0  0  0
 20 46  1  0  0  0  0
 20 47  1  6  0  0  0
 20 48  1  6  0  0  0
 21 49  1  6  0  0  0
 21 50  1  0  0  0  0
 21 51  1  0  0  0  0
 22 52  1  6  0  0  0
 22 53  1  0  0  0  0
 22 54  1  1  0  0  0
M  END
>  <Formula> (157)
C19H32O3

>  <Name> (157)
(3,7,7,10A-TETRAMETHYL-DODECAHYDRO-BENZO[F]CHROMEN-3-YL)-ACETIC ACID

>  <Compound classification> (157)
Diterpene

>  <Microorganism> (157)
Bacillus subtilis

>  <Microorganism classification> (157)
Bac+

>  <ADT evaluation> (157)
3

>  <Method abbreviation> (157)
ADT

>  <Ref-Nr> (157)
6271

>  <Marker> (157)
0

>  <Method> (157)
Agar diffusion test; Medium: Mueller-Hinton agar; Inoculum size: ---; disk diameter: 5 mm; Incubation temperature: 37 degrees Centigrade; Incubation time: 24h; compound dose: 0.25, 0.5, 1, 5 mg/ml solutions per disk

>  <Reference> (157)
Darias, V., Bravo, I., Rabanal, R., Sanchez-Mateao, C.C., Martin-Herera, D.A.: Cytostatic and Antibacterial Activity of some Compounds Isolated from Several Lamiaceae Species from the Canary Islands; Planta Medica 56, 70-2 (1990)

>  <mol_id> (157)
2720

>  <MolWeight> (157)
308.46

>  <Nickname> (157)
Epigomeric acid

$$$$

csChmFindW11180110282D

 54 56  0  0  0  0  0  0  0  0999 V2000
    1.4648    5.7231    0.8260 C   0  0  0  0  0  0  0  0  0  0  0  0
    1.2903    3.8280    1.1877 C   0  0  0  0  0  0  0  0  0  0  0  0
    2.6777    2.7334    0.3256 C   0  0  0  0  0  0  0  0  0  0  0  0
    4.4523    3.4886    0.7423 C   0  0  0  0  0  0  0  0  0  0  0  0
    4.6766    5.4312    0.4236 C   0  0  0  0  0  0  0  0  0  0  0  0
    3.2159    6.3923    1.3203 C   0  0  0  0  0  0  0  0  0  0  0  0
    5.9204    2.4863   -0.0649 C   0  0  0  0  0  0  0  0  0  0  0  0
    7.6195    2.9986    0.7230 C   0  0  0  0  0  0  0  0  0  0  0  0
    7.8968    4.9262    0.5512 C   0  0  0  0  0  0  0  0  0  0  0  0
    6.3851    5.9443    1.2862 C   0  0  0  0  0  0  0  0  0  0  0  0
    9.4437    5.2831    1.4732 O   0  0  0  0  0  0  0  0  0  0  0  0
    9.9411    7.0510    1.5302 C   0  0  0  0  0  0  0  0  0  0  0  0
    8.4663    8.2125    2.1012 C   0  0  0  0  0  0  0  0  0  0  0  0
    6.8089    7.8425    1.1591 C   0  0  0  0  0  0  0  0  0  0  0  0
   11.3899    7.0970    2.8500 C   0  0  0  0  0  0  0  0  0  0  0  0
   10.6247    7.5747   -0.2452 C   0  0  0  0  0  0  0  0  0  0  0  0
   11.2973    9.3674   -0.2796 C   0  0  0  0  0  0  0  0  0  0  0  0
   12.6688    9.9469    0.2583 O   0  0  0  0  0  0  0  0  0  0  0  0
   10.2293   10.5131   -1.0621 O   0  0  0  0  0  0  0  0  0  0  0  0
    4.6997    5.9197   -1.4625 C   0  0  0  0  0  0  0  0  0  0  0  0
    2.2942    2.5566   -1.5794 C   0  0  0  0  0  0  0  0  0  0  0  0
    2.5611    0.9384    1.1183 C   0  0  0  0  0  0  0  0  0  0  0  0
    0.4622    6.4381    1.5723 H   0  0  0  0  0  0  0  0  0  0  0  0
    1.2167    5.9833   -0.5670 H   0  0  0  0  0  0  0  0  0  0  0  0
    0.0000    3.3740    0.7421 H   0  0  0  0  0  0  0  0  0  0  0  0
    1.3557    3.6155    2.6104 H   0  0  0  0  0  0  0  0  0  0  0  0
    4.5831    3.3288    2.1830 H   0  0  0  0  0  0  0  0  0  0  0  0
    3.3824    6.2756    2.7451 H   0  0  0  0  0  0  0  0  0  0  0  0
    3.2926    7.7902    0.9875 H   0  0  0  0  0  0  0  0  0  0  0  0
    5.9605    2.7064   -1.4850 H   0  0  0  0  0  0  0  0  0  0  0  0
    5.7248    1.0773    0.1435 H   0  0  0  0  0  0  0  0  0  0  0  0
    8.6961    2.3055    0.0710 H   0  0  0  0  0  0  0  0  0  0  0  0
    7.6560    2.6388    2.1149 H   0  0  0  0  0  0  0  0  0  0  0  0
    8.0952    5.2712   -0.8371 H   0  0  0  0  0  0  0  0  0  0  0  0
    6.2782    5.6124    2.6905 H   0  0  0  0  0  0  0  0  0  0  0  0
    8.8486    9.5825    1.8871 H   0  0  0  0  0  0  0  0  0  0  0  0
    8.2591    8.0259    3.5128 H   0  0  0  0  0  0  0  0  0  0  0  0
    5.7527    8.6257    1.7394 H   0  0  0  0  0  0  0  0  0  0  0  0
    6.9376    8.2366   -0.2180 H   0  0  0  0  0  0  0  0  0  0  0  0
   11.9594    8.4093    2.8904 H   0  0  0  0  0  0  0  0  0  0  0  0
   12.4046    6.1538    2.4909 H   0  0  0  0  0  0  0  0  0  0  0  0
   10.8855    6.7514    4.1431 H   0  0  0  0  0  0  0  0  0  0  0  0
    9.5736    7.4513   -1.2199 H   0  0  0  0  0  0  0  0  0  0  0  0
   11.6973    6.6855   -0.6072 H   0  0  0  0  0  0  0  0  0  0  0  0
   10.7515   11.6437   -1.0629 H   0  0  0  0  0  0  0  0  0  0  0  0
    4.8423    7.3395   -1.6011 H   0  0  0  0  0  0  0  0  0  0  0  0
    3.4809    5.5413   -2.1071 H   0  0  0  0  0  0  0  0  0  0  0  0
    5.7820    5.2894   -2.1540 H   0  0  0  0  0  0  0  0  0  0  0  0
    3.4759    2.2270   -2.3150 H   0  0  0  0  0  0  0  0  0  0  0  0
    1.7380    3.7611   -2.1164 H   0  0  0  0  0  0  0  0  0  0  0  0
    1.3308    1.5147   -1.7906 H   0  0  0  0  0  0  0  0  0  0  0  0
    3.3374    0.0000    0.3669 H   0  0  0  0  0  0  0  0  0  0  0  0
    1.1991    0.4936    1.1139 H   0  0  0  0  0  0  0  0  0  0  0  0
    3.0292    0.9456    2.4707 H   0  0  0  0  0  0  0  0  0  0  0  0
  1  2  1  0  0  0  0
  1  6  1  0  0  0  0
  1 23  1  1  0  0  0
  1 24  1  6  0  0  0
  2  3  1  0  0  0  0
  2 25  1  0  0  0  0
  2 26  1  1  0  0  0
  3  4  1  0  0  0  0
  3 21  1  6  0  0  0
  3 22  1  0  0  0  0
  4  5  1  0  0  0  0
  4  7  1  0  0  0  0
  4 27  1  1  0  0  0
  5  6  1  1  0  0  0
  5 10  1  0  0  0  0
  5 20  1  6  0  0  0
  6 28  1  1  0  0  0
  6 29  1  0  0  0  0
  7  8  1  0  0  0  0
  7 30  1  6  0  0  0
  7 31  1  0  0  0  0
  8  9  1  0  0  0  0
  8 32  1  6  0  0  0
  8 33  1  1  0  0  0
  9 10  1  0  0  0  0
  9 11  1  1  0  0  0
  9 34  1  6  0  0  0
 10 14  1  0  0  0  0
 10 35  1  1  0  0  0
 11 12  1  0  0  0  0
 12 13  1  0  0  0  0
 12 15  1  1  0  0  0
 12 16  1  6  0  0  0
 13 14  1  6  0  0  0
 13 36  1  0  0  0  0
 13 37  1  1  0  0  0
 14 38  1  0  0  0  0
 14 39  1  6  0  0  0
 15 40  1  0  0  0  0
 15 41  1  0  0  0  0
 15 42  1  1  0  0  0
 16 17  1  0  0  0  0
 16 43  1  6  0  0  0
 16 44  1  0  0  0  0
 17 18  2  0  0  0  0
 17 19  1  0  0  0  0
 19 45  1  0  0  0  0
 20 46  1  0  0  0  0
 20 47  1  6  0  0  0
 20 48  1  6  0  0  0
 21 49  1  6  0  0  0
 21 50  1  0  0  0  0
 21 51  1  0  0  0  0
 22 52  1  6  0  0  0
 22 53  1  0  0  0  0
 22 54  1  1  0  0  0
M  END
>  <Formula> (158)
C19H32O3

>  <Name> (158)
(3,7,7,10A-TETRAMETHYL-DODECAHYDRO-BENZO[F]CHROMEN-3-YL)-ACETIC ACID

>  <Compound classification> (158)
Diterpene

>  <Microorganism> (158)
Micrococcus luteus

>  <Microorganism classification> (158)
Bac+

>  <ADT evaluation> (158)
2

>  <Method abbreviation> (158)
ADT

>  <Ref-Nr> (158)
6271

>  <Marker> (158)
0

>  <Method> (158)
Agar diffusion test; Medium: Mueller-Hinton agar; Inoculum size: ---; disk diameter: 5 mm; Incubation temperature: 37 degrees Centigrade; Incubation time: 24h; compound dose: 0.25, 0.5, 1, 5 mg/ml solutions per disk

>  <Reference> (158)
Darias, V., Bravo, I., Rabanal, R., Sanchez-Mateao, C.C., Martin-Herera, D.A.: Cytostatic and Antibacterial Activity of some Compounds Isolated from Several Lamiaceae Species from the Canary Islands; Planta Medica 56, 70-2 (1990)

>  <mol_id> (158)
2720

>  <MolWeight> (158)
308.46

>  <Nickname> (158)
Epigomeric acid

$$$$

csChmFindW11180110282D

 24 24  0  0  0  0  0  0  0  0999 V2000
    3.1884    5.5241   -0.3866 C   0  0  0  0  0  0  0  0  0  0  0  0
    4.8749    5.4606   -0.6520 C   0  0  0  0  0  0  0  0  0  0  0  0
    2.1001    4.1429   -0.0424 C   0  0  0  0  0  0  0  0  0  0  0  0
    2.3501    7.2260   -0.4566 C   0  0  0  0  0  0  0  0  0  0  0  0
    5.9634    4.0444   -0.6568 C   0  0  0  0  0  0  0  0  0  0  0  0
    2.4578    2.4776    0.0946 C   0  0  0  0  0  0  0  0  0  0  0  0
    1.0588    7.2988   -1.8548 C   0  0  0  0  0  0  0  0  0  0  0  0
    1.5629    7.6733    1.2189 C   0  0  0  0  0  0  0  0  0  0  0  0
    5.6354    2.4022   -0.4119 C   0  0  0  0  0  0  0  0  0  0  0  0
    4.0612    1.5603   -0.0639 C   0  0  0  0  0  0  0  0  0  0  0  0
    1.0758    1.4869    0.4416 O   0  0  0  0  0  0  0  0  0  0  0  0
    4.0179    0.0000    0.1177 O   0  0  0  0  0  0  0  0  0  0  0  0
    5.5286    6.6648   -0.9036 H   0  0  0  0  0  0  0  0  0  0  0  0
    0.7574    4.4781    0.1403 H   0  0  0  0  0  0  0  0  0  0  0  0
    3.3382    8.2047   -0.7381 H   0  0  0  0  0  0  0  0  0  0  0  0
    7.2974    4.3729   -0.9065 H   0  0  0  0  0  0  0  0  0  0  0  0
    0.5343    8.5968   -1.9470 H   0  0  0  0  0  0  0  0  0  0  0  0
    0.0000    6.4116   -1.6126 H   0  0  0  0  0  0  0  0  0  0  0  0
    1.6475    6.9644   -3.0828 H   0  0  0  0  0  0  0  0  0  0  0  0
    1.0501    8.9783    1.1669 H   0  0  0  0  0  0  0  0  0  0  0  0
    2.5190    7.6074    2.2424 H   0  0  0  0  0  0  0  0  0  0  0  0
    0.5125    6.7992    1.5342 H   0  0  0  0  0  0  0  0  0  0  0  0
    6.7036    1.5088   -0.4767 H   0  0  0  0  0  0  0  0  0  0  0  0
    1.4326    0.3186    0.5155 H   0  0  0  0  0  0  0  0  0  0  0  0
  1  2  2  0  0  0  0
  1  3  1  0  0  0  0
  1  4  1  0  0  0  0
  2  5  1  0  0  0  0
  2 13  1  0  0  0  0
  3  6  2  0  0  0  0
  3 14  1  0  0  0  0
  4  7  1  6  0  0  0
  4  8  1  1  0  0  0
  4 15  1  0  0  0  0
  5  9  2  0  0  0  0
  5 16  1  0  0  0  0
  6 10  1  0  0  0  0
  6 11  1  0  0  0  0
  7 17  1  0  0  0  0
  7 18  1  0  0  0  0
  7 19  1  6  0  0  0
  8 20  1  0  0  0  0
  8 21  1  1  0  0  0
  8 22  1  0  0  0  0
  9 10  1  0  0  0  0
  9 23  1  0  0  0  0
 10 12  2  0  0  0  0
 11 24  1  0  0  0  0
M  END
>  <Formula> (159)
C10H12O2

>  <Name> (159)
2-HYDROXY-4-ISOPROPYL-2,4,6-CYCLOHEPTATRIENONE

>  <CAS-Nr> (159)
499-44-5

>  <EINECS> (159)
207-880-7

>  <LD50-rat-oral> (159)
>500

>  <Compound classification> (159)
Monoterpene

>  <Microorganism> (159)
Eschericia coli

>  <Microorganism classification> (159)
Bac-

>  <MMC> (159)
20

>  <Method abbreviation> (159)
SDT

>  <Ref-Nr> (159)
6297

>  <Marker> (159)
0

>  <Method> (159)
Serial dilution test; method in Japanese - not translated

>  <Reference> (159)
Yamaguchi, Y.: Growth Inhibitor for Cariogenic Bacteria; Fragrance Journal 46, 56-9 (1981)

>  <mol_id> (159)
179

>  <LD50-mouse-oral> (159)
760

>  <LD50-mou-ip> (159)
85

>  <MolWeight> (159)
164.20

>  <Nickname> (159)
Hinokitiol

>  <other Names> (159)
beta-Thujaplicin, 4-Isopropyltropolone

>  <LD50-mou-iv> (159)
128

$$$$

csChmFindW11180110282D

 24 24  0  0  0  0  0  0  0  0999 V2000
    3.1884    5.5241   -0.3866 C   0  0  0  0  0  0  0  0  0  0  0  0
    4.8749    5.4606   -0.6520 C   0  0  0  0  0  0  0  0  0  0  0  0
    2.1001    4.1429   -0.0424 C   0  0  0  0  0  0  0  0  0  0  0  0
    2.3501    7.2260   -0.4566 C   0  0  0  0  0  0  0  0  0  0  0  0
    5.9634    4.0444   -0.6568 C   0  0  0  0  0  0  0  0  0  0  0  0
    2.4578    2.4776    0.0946 C   0  0  0  0  0  0  0  0  0  0  0  0
    1.0588    7.2988   -1.8548 C   0  0  0  0  0  0  0  0  0  0  0  0
    1.5629    7.6733    1.2189 C   0  0  0  0  0  0  0  0  0  0  0  0
    5.6354    2.4022   -0.4119 C   0  0  0  0  0  0  0  0  0  0  0  0
    4.0612    1.5603   -0.0639 C   0  0  0  0  0  0  0  0  0  0  0  0
    1.0758    1.4869    0.4416 O   0  0  0  0  0  0  0  0  0  0  0  0
    4.0179    0.0000    0.1177 O   0  0  0  0  0  0  0  0  0  0  0  0
    5.5286    6.6648   -0.9036 H   0  0  0  0  0  0  0  0  0  0  0  0
    0.7574    4.4781    0.1403 H   0  0  0  0  0  0  0  0  0  0  0  0
    3.3382    8.2047   -0.7381 H   0  0  0  0  0  0  0  0  0  0  0  0
    7.2974    4.3729   -0.9065 H   0  0  0  0  0  0  0  0  0  0  0  0
    0.5343    8.5968   -1.9470 H   0  0  0  0  0  0  0  0  0  0  0  0
    0.0000    6.4116   -1.6126 H   0  0  0  0  0  0  0  0  0  0  0  0
    1.6475    6.9644   -3.0828 H   0  0  0  0  0  0  0  0  0  0  0  0
    1.0501    8.9783    1.1669 H   0  0  0  0  0  0  0  0  0  0  0  0
    2.5190    7.6074    2.2424 H   0  0  0  0  0  0  0  0  0  0  0  0
    0.5125    6.7992    1.5342 H   0  0  0  0  0  0  0  0  0  0  0  0
    6.7036    1.5088   -0.4767 H   0  0  0  0  0  0  0  0  0  0  0  0
    1.4326    0.3186    0.5155 H   0  0  0  0  0  0  0  0  0  0  0  0
  1  2  2  0  0  0  0
  1  3  1  0  0  0  0
  1  4  1  0  0  0  0
  2  5  1  0  0  0  0
  2 13  1  0  0  0  0
  3  6  2  0  0  0  0
  3 14  1  0  0  0  0
  4  7  1  6  0  0  0
  4  8  1  1  0  0  0
  4 15  1  0  0  0  0
  5  9  2  0  0  0  0
  5 16  1  0  0  0  0
  6 10  1  0  0  0  0
  6 11  1  0  0  0  0
  7 17  1  0  0  0  0
  7 18  1  0  0  0  0
  7 19  1  6  0  0  0
  8 20  1  0  0  0  0
  8 21  1  1  0  0  0
  8 22  1  0  0  0  0
  9 10  1  0  0  0  0
  9 23  1  0  0  0  0
 10 12  2  0  0  0  0
 11 24  1  0  0  0  0
M  END
>  <Formula> (160)
C10H12O2

>  <Name> (160)
2-HYDROXY-4-ISOPROPYL-2,4,6-CYCLOHEPTATRIENONE

>  <CAS-Nr> (160)
499-44-5

>  <EINECS> (160)
207-880-7

>  <LD50-rat-oral> (160)
>500

>  <Compound classification> (160)
Monoterpene

>  <Microorganism> (160)
Eschericia coli

>  <Microorganism classification> (160)
Bac-

>  <MMC> (160)
20

>  <Annotation> (160)
hinokitiol Na-salt

>  <Method abbreviation> (160)
SDT

>  <Ref-Nr> (160)
6297

>  <Marker> (160)
0

>  <Method> (160)
Serial dilution test; method in Japanese - not translated

>  <Reference> (160)
Yamaguchi, Y.: Growth Inhibitor for Cariogenic Bacteria; Fragrance Journal 46, 56-9 (1981)

>  <mol_id> (160)
179

>  <LD50-mouse-oral> (160)
760

>  <LD50-mou-ip> (160)
85

>  <MolWeight> (160)
164.20

>  <Nickname> (160)
Hinokitiol

>  <other Names> (160)
beta-Thujaplicin, 4-Isopropyltropolone

>  <LD50-mou-iv> (160)
128

$$$$

csChmFindW11180110282D

 24 24  0  0  0  0  0  0  0  0999 V2000
    3.1884    5.5241   -0.3866 C   0  0  0  0  0  0  0  0  0  0  0  0
    4.8749    5.4606   -0.6520 C   0  0  0  0  0  0  0  0  0  0  0  0
    2.1001    4.1429   -0.0424 C   0  0  0  0  0  0  0  0  0  0  0  0
    2.3501    7.2260   -0.4566 C   0  0  0  0  0  0  0  0  0  0  0  0
    5.9634    4.0444   -0.6568 C   0  0  0  0  0  0  0  0  0  0  0  0
    2.4578    2.4776    0.0946 C   0  0  0  0  0  0  0  0  0  0  0  0
    1.0588    7.2988   -1.8548 C   0  0  0  0  0  0  0  0  0  0  0  0
    1.5629    7.6733    1.2189 C   0  0  0  0  0  0  0  0  0  0  0  0
    5.6354    2.4022   -0.4119 C   0  0  0  0  0  0  0  0  0  0  0  0
    4.0612    1.5603   -0.0639 C   0  0  0  0  0  0  0  0  0  0  0  0
    1.0758    1.4869    0.4416 O   0  0  0  0  0  0  0  0  0  0  0  0
    4.0179    0.0000    0.1177 O   0  0  0  0  0  0  0  0  0  0  0  0
    5.5286    6.6648   -0.9036 H   0  0  0  0  0  0  0  0  0  0  0  0
    0.7574    4.4781    0.1403 H   0  0  0  0  0  0  0  0  0  0  0  0
    3.3382    8.2047   -0.7381 H   0  0  0  0  0  0  0  0  0  0  0  0
    7.2974    4.3729   -0.9065 H   0  0  0  0  0  0  0  0  0  0  0  0
    0.5343    8.5968   -1.9470 H   0  0  0  0  0  0  0  0  0  0  0  0
    0.0000    6.4116   -1.6126 H   0  0  0  0  0  0  0  0  0  0  0  0
    1.6475    6.9644   -3.0828 H   0  0  0  0  0  0  0  0  0  0  0  0
    1.0501    8.9783    1.1669 H   0  0  0  0  0  0  0  0  0  0  0  0
    2.5190    7.6074    2.2424 H   0  0  0  0  0  0  0  0  0  0  0  0
    0.5125    6.7992    1.5342 H   0  0  0  0  0  0  0  0  0  0  0  0
    6.7036    1.5088   -0.4767 H   0  0  0  0  0  0  0  0  0  0  0  0
    1.4326    0.3186    0.5155 H   0  0  0  0  0  0  0  0  0  0  0  0
  1  2  2  0  0  0  0
  1  3  1  0  0  0  0
  1  4  1  0  0  0  0
  2  5  1  0  0  0  0
  2 13  1  0  0  0  0
  3  6  2  0  0  0  0
  3 14  1  0  0  0  0
  4  7  1  6  0  0  0
  4  8  1  1  0  0  0
  4 15  1  0  0  0  0
  5  9  2  0  0  0  0
  5 16  1  0  0  0  0
  6 10  1  0  0  0  0
  6 11  1  0  0  0  0
  7 17  1  0  0  0  0
  7 18  1  0  0  0  0
  7 19  1  6  0  0  0
  8 20  1  0  0  0  0
  8 21  1  1  0  0  0
  8 22  1  0  0  0  0
  9 10  1  0  0  0  0
  9 23  1  0  0  0  0
 10 12  2  0  0  0  0
 11 24  1  0  0  0  0
M  END
>  <Formula> (161)
C10H12O2

>  <Name> (161)
2-HYDROXY-4-ISOPROPYL-2,4,6-CYCLOHEPTATRIENONE

>  <CAS-Nr> (161)
499-44-5

>  <EINECS> (161)
207-880-7

>  <LD50-rat-oral> (161)
>500

>  <Compound classification> (161)
Monoterpene

>  <Microorganism> (161)
Eschericia coli

>  <Microorganism classification> (161)
Bac-

>  <MIC> (161)
10

>  <Method abbreviation> (161)
SDT

>  <Ref-Nr> (161)
6297

>  <Marker> (161)
0

>  <Method> (161)
Serial dilution test; method in Japanese - not translated

>  <Reference> (161)
Yamaguchi, Y.: Growth Inhibitor for Cariogenic Bacteria; Fragrance Journal 46, 56-9 (1981)

>  <mol_id> (161)
179

>  <LD50-mouse-oral> (161)
760

>  <LD50-mou-ip> (161)
85

>  <MolWeight> (161)
164.20

>  <Nickname> (161)
Hinokitiol

>  <other Names> (161)
beta-Thujaplicin, 4-Isopropyltropolone

>  <LD50-mou-iv> (161)
128

$$$$

csChmFindW11180110282D

 24 24  0  0  0  0  0  0  0  0999 V2000
    3.1884    5.5241   -0.3866 C   0  0  0  0  0  0  0  0  0  0  0  0
    4.8749    5.4606   -0.6520 C   0  0  0  0  0  0  0  0  0  0  0  0
    2.1001    4.1429   -0.0424 C   0  0  0  0  0  0  0  0  0  0  0  0
    2.3501    7.2260   -0.4566 C   0  0  0  0  0  0  0  0  0  0  0  0
    5.9634    4.0444   -0.6568 C   0  0  0  0  0  0  0  0  0  0  0  0
    2.4578    2.4776    0.0946 C   0  0  0  0  0  0  0  0  0  0  0  0
    1.0588    7.2988   -1.8548 C   0  0  0  0  0  0  0  0  0  0  0  0
    1.5629    7.6733    1.2189 C   0  0  0  0  0  0  0  0  0  0  0  0
    5.6354    2.4022   -0.4119 C   0  0  0  0  0  0  0  0  0  0  0  0
    4.0612    1.5603   -0.0639 C   0  0  0  0  0  0  0  0  0  0  0  0
    1.0758    1.4869    0.4416 O   0  0  0  0  0  0  0  0  0  0  0  0
    4.0179    0.0000    0.1177 O   0  0  0  0  0  0  0  0  0  0  0  0
    5.5286    6.6648   -0.9036 H   0  0  0  0  0  0  0  0  0  0  0  0
    0.7574    4.4781    0.1403 H   0  0  0  0  0  0  0  0  0  0  0  0
    3.3382    8.2047   -0.7381 H   0  0  0  0  0  0  0  0  0  0  0  0
    7.2974    4.3729   -0.9065 H   0  0  0  0  0  0  0  0  0  0  0  0
    0.5343    8.5968   -1.9470 H   0  0  0  0  0  0  0  0  0  0  0  0
    0.0000    6.4116   -1.6126 H   0  0  0  0  0  0  0  0  0  0  0  0
    1.6475    6.9644   -3.0828 H   0  0  0  0  0  0  0  0  0  0  0  0
    1.0501    8.9783    1.1669 H   0  0  0  0  0  0  0  0  0  0  0  0
    2.5190    7.6074    2.2424 H   0  0  0  0  0  0  0  0  0  0  0  0
    0.5125    6.7992    1.5342 H   0  0  0  0  0  0  0  0  0  0  0  0
    6.7036    1.5088   -0.4767 H   0  0  0  0  0  0  0  0  0  0  0  0
    1.4326    0.3186    0.5155 H   0  0  0  0  0  0  0  0  0  0  0  0
  1  2  2  0  0  0  0
  1  3  1  0  0  0  0
  1  4  1  0  0  0  0
  2  5  1  0  0  0  0
  2 13  1  0  0  0  0
  3  6  2  0  0  0  0
  3 14  1  0  0  0  0
  4  7  1  6  0  0  0
  4  8  1  1  0  0  0
  4 15  1  0  0  0  0
  5  9  2  0  0  0  0
  5 16  1  0  0  0  0
  6 10  1  0  0  0  0
  6 11  1  0  0  0  0
  7 17  1  0  0  0  0
  7 18  1  0  0  0  0
  7 19  1  6  0  0  0
  8 20  1  0  0  0  0
  8 21  1  1  0  0  0
  8 22  1  0  0  0  0
  9 10  1  0  0  0  0
  9 23  1  0  0  0  0
 10 12  2  0  0  0  0
 11 24  1  0  0  0  0
M  END
>  <Formula> (162)
C10H12O2

>  <Name> (162)
2-HYDROXY-4-ISOPROPYL-2,4,6-CYCLOHEPTATRIENONE

>  <CAS-Nr> (162)
499-44-5

>  <EINECS> (162)
207-880-7

>  <LD50-rat-oral> (162)
>500

>  <Compound classification> (162)
Monoterpene

>  <Microorganism> (162)
Eschericia coli

>  <Microorganism classification> (162)
Bac-

>  <MIC> (162)
10

>  <Annotation> (162)
hinokitiol Na-salt

>  <Method abbreviation> (162)
SDT

>  <Ref-Nr> (162)
6297

>  <Marker> (162)
0

>  <Method> (162)
Serial dilution test; method in Japanese - not translated

>  <Reference> (162)
Yamaguchi, Y.: Growth Inhibitor for Cariogenic Bacteria; Fragrance Journal 46, 56-9 (1981)

>  <mol_id> (162)
179

>  <LD50-mouse-oral> (162)
760

>  <LD50-mou-ip> (162)
85

>  <MolWeight> (162)
164.20

>  <Nickname> (162)
Hinokitiol

>  <other Names> (162)
beta-Thujaplicin, 4-Isopropyltropolone

>  <LD50-mou-iv> (162)
128

$$$$

csChmFindW11180110282D

 24 24  0  0  0  0  0  0  0  0999 V2000
    3.1884    5.5241   -0.3866 C   0  0  0  0  0  0  0  0  0  0  0  0
    4.8749    5.4606   -0.6520 C   0  0  0  0  0  0  0  0  0  0  0  0
    2.1001    4.1429   -0.0424 C   0  0  0  0  0  0  0  0  0  0  0  0
    2.3501    7.2260   -0.4566 C   0  0  0  0  0  0  0  0  0  0  0  0
    5.9634    4.0444   -0.6568 C   0  0  0  0  0  0  0  0  0  0  0  0
    2.4578    2.4776    0.0946 C   0  0  0  0  0  0  0  0  0  0  0  0
    1.0588    7.2988   -1.8548 C   0  0  0  0  0  0  0  0  0  0  0  0
    1.5629    7.6733    1.2189 C   0  0  0  0  0  0  0  0  0  0  0  0
    5.6354    2.4022   -0.4119 C   0  0  0  0  0  0  0  0  0  0  0  0
    4.0612    1.5603   -0.0639 C   0  0  0  0  0  0  0  0  0  0  0  0
    1.0758    1.4869    0.4416 O   0  0  0  0  0  0  0  0  0  0  0  0
    4.0179    0.0000    0.1177 O   0  0  0  0  0  0  0  0  0  0  0  0
    5.5286    6.6648   -0.9036 H   0  0  0  0  0  0  0  0  0  0  0  0
    0.7574    4.4781    0.1403 H   0  0  0  0  0  0  0  0  0  0  0  0
    3.3382    8.2047   -0.7381 H   0  0  0  0  0  0  0  0  0  0  0  0
    7.2974    4.3729   -0.9065 H   0  0  0  0  0  0  0  0  0  0  0  0
    0.5343    8.5968   -1.9470 H   0  0  0  0  0  0  0  0  0  0  0  0
    0.0000    6.4116   -1.6126 H   0  0  0  0  0  0  0  0  0  0  0  0
    1.6475    6.9644   -3.0828 H   0  0  0  0  0  0  0  0  0  0  0  0
    1.0501    8.9783    1.1669 H   0  0  0  0  0  0  0  0  0  0  0  0
    2.5190    7.6074    2.2424 H   0  0  0  0  0  0  0  0  0  0  0  0
    0.5125    6.7992    1.5342 H   0  0  0  0  0  0  0  0  0  0  0  0
    6.7036    1.5088   -0.4767 H   0  0  0  0  0  0  0  0  0  0  0  0
    1.4326    0.3186    0.5155 H   0  0  0  0  0  0  0  0  0  0  0  0
  1  2  2  0  0  0  0
  1  3  1  0  0  0  0
  1  4  1  0  0  0  0
  2  5  1  0  0  0  0
  2 13  1  0  0  0  0
  3  6  2  0  0  0  0
  3 14  1  0  0  0  0
  4  7  1  6  0  0  0
  4  8  1  1  0  0  0
  4 15  1  0  0  0  0
  5  9  2  0  0  0  0
  5 16  1  0  0  0  0
  6 10  1  0  0  0  0
  6 11  1  0  0  0  0
  7 17  1  0  0  0  0
  7 18  1  0  0  0  0
  7 19  1  6  0  0  0
  8 20  1  0  0  0  0
  8 21  1  1  0  0  0
  8 22  1  0  0  0  0
  9 10  1  0  0  0  0
  9 23  1  0  0  0  0
 10 12  2  0  0  0  0
 11 24  1  0  0  0  0
M  END
>  <Formula> (163)
C10H12O2

>  <Name> (163)
2-HYDROXY-4-ISOPROPYL-2,4,6-CYCLOHEPTATRIENONE

>  <CAS-Nr> (163)
499-44-5

>  <EINECS> (163)
207-880-7

>  <LD50-rat-oral> (163)
>500

>  <Compound classification> (163)
Monoterpene

>  <Microorganism> (163)
Eschericia coli

>  <Microorganism classification> (163)
Bac-

>  <MIC> (163)
50

>  <Method abbreviation> (163)
SDT

>  <Ref-Nr> (163)
6297

>  <Marker> (163)
0

>  <Method> (163)
Serial dilution test; method in Japanese - not translated

>  <Reference> (163)
Yamaguchi, Y.: Growth Inhibitor for Cariogenic Bacteria; Fragrance Journal 46, 56-9 (1981)

>  <mol_id> (163)
179

>  <LD50-mouse-oral> (163)
760

>  <LD50-mou-ip> (163)
85

>  <MolWeight> (163)
164.20

>  <Nickname> (163)
Hinokitiol

>  <other Names> (163)
beta-Thujaplicin, 4-Isopropyltropolone

>  <LD50-mou-iv> (163)
128

$$$$

csChmFindW11180110282D

 24 24  0  0  0  0  0  0  0  0999 V2000
    3.1884    5.5241   -0.3866 C   0  0  0  0  0  0  0  0  0  0  0  0
    4.8749    5.4606   -0.6520 C   0  0  0  0  0  0  0  0  0  0  0  0
    2.1001    4.1429   -0.0424 C   0  0  0  0  0  0  0  0  0  0  0  0
    2.3501    7.2260   -0.4566 C   0  0  0  0  0  0  0  0  0  0  0  0
    5.9634    4.0444   -0.6568 C   0  0  0  0  0  0  0  0  0  0  0  0
    2.4578    2.4776    0.0946 C   0  0  0  0  0  0  0  0  0  0  0  0
    1.0588    7.2988   -1.8548 C   0  0  0  0  0  0  0  0  0  0  0  0
    1.5629    7.6733    1.2189 C   0  0  0  0  0  0  0  0  0  0  0  0
    5.6354    2.4022   -0.4119 C   0  0  0  0  0  0  0  0  0  0  0  0
    4.0612    1.5603   -0.0639 C   0  0  0  0  0  0  0  0  0  0  0  0
    1.0758    1.4869    0.4416 O   0  0  0  0  0  0  0  0  0  0  0  0
    4.0179    0.0000    0.1177 O   0  0  0  0  0  0  0  0  0  0  0  0
    5.5286    6.6648   -0.9036 H   0  0  0  0  0  0  0  0  0  0  0  0
    0.7574    4.4781    0.1403 H   0  0  0  0  0  0  0  0  0  0  0  0
    3.3382    8.2047   -0.7381 H   0  0  0  0  0  0  0  0  0  0  0  0
    7.2974    4.3729   -0.9065 H   0  0  0  0  0  0  0  0  0  0  0  0
    0.5343    8.5968   -1.9470 H   0  0  0  0  0  0  0  0  0  0  0  0
    0.0000    6.4116   -1.6126 H   0  0  0  0  0  0  0  0  0  0  0  0
    1.6475    6.9644   -3.0828 H   0  0  0  0  0  0  0  0  0  0  0  0
    1.0501    8.9783    1.1669 H   0  0  0  0  0  0  0  0  0  0  0  0
    2.5190    7.6074    2.2424 H   0  0  0  0  0  0  0  0  0  0  0  0
    0.5125    6.7992    1.5342 H   0  0  0  0  0  0  0  0  0  0  0  0
    6.7036    1.5088   -0.4767 H   0  0  0  0  0  0  0  0  0  0  0  0
    1.4326    0.3186    0.5155 H   0  0  0  0  0  0  0  0  0  0  0  0
  1  2  2  0  0  0  0
  1  3  1  0  0  0  0
  1  4  1  0  0  0  0
  2  5  1  0  0  0  0
  2 13  1  0  0  0  0
  3  6  2  0  0  0  0
  3 14  1  0  0  0  0
  4  7  1  6  0  0  0
  4  8  1  1  0  0  0
  4 15  1  0  0  0  0
  5  9  2  0  0  0  0
  5 16  1  0  0  0  0
  6 10  1  0  0  0  0
  6 11  1  0  0  0  0
  7 17  1  0  0  0  0
  7 18  1  0  0  0  0
  7 19  1  6  0  0  0
  8 20  1  0  0  0  0
  8 21  1  1  0  0  0
  8 22  1  0  0  0  0
  9 10  1  0  0  0  0
  9 23  1  0  0  0  0
 10 12  2  0  0  0  0
 11 24  1  0  0  0  0
M  END
>  <Formula> (164)
C10H12O2

>  <Name> (164)
2-HYDROXY-4-ISOPROPYL-2,4,6-CYCLOHEPTATRIENONE

>  <CAS-Nr> (164)
499-44-5

>  <EINECS> (164)
207-880-7

>  <LD50-rat-oral> (164)
>500

>  <Compound classification> (164)
Monoterpene

>  <Microorganism> (164)
Trichoderma viride

>  <Microorganism classification> (164)
fungi

>  <MIC> (164)
100

>  <Annotation> (164)
hinokitiol Na-salt

>  <Method abbreviation> (164)
SDT

>  <Ref-Nr> (164)
6297

>  <Marker> (164)
0

>  <Method> (164)
Serial dilution test; method in Japanese - not translated

>  <Reference> (164)
Yamaguchi, Y.: Growth Inhibitor for Cariogenic Bacteria; Fragrance Journal 46, 56-9 (1981)

>  <mol_id> (164)
179

>  <LD50-mouse-oral> (164)
760

>  <LD50-mou-ip> (164)
85

>  <MolWeight> (164)
164.20

>  <Nickname> (164)
Hinokitiol

>  <other Names> (164)
beta-Thujaplicin, 4-Isopropyltropolone

>  <LD50-mou-iv> (164)
128

$$$$

csChmFindW11180110282D

 24 24  0  0  0  0  0  0  0  0999 V2000
    3.1884    5.5241   -0.3866 C   0  0  0  0  0  0  0  0  0  0  0  0
    4.8749    5.4606   -0.6520 C   0  0  0  0  0  0  0  0  0  0  0  0
    2.1001    4.1429   -0.0424 C   0  0  0  0  0  0  0  0  0  0  0  0
    2.3501    7.2260   -0.4566 C   0  0  0  0  0  0  0  0  0  0  0  0
    5.9634    4.0444   -0.6568 C   0  0  0  0  0  0  0  0  0  0  0  0
    2.4578    2.4776    0.0946 C   0  0  0  0  0  0  0  0  0  0  0  0
    1.0588    7.2988   -1.8548 C   0  0  0  0  0  0  0  0  0  0  0  0
    1.5629    7.6733    1.2189 C   0  0  0  0  0  0  0  0  0  0  0  0
    5.6354    2.4022   -0.4119 C   0  0  0  0  0  0  0  0  0  0  0  0
    4.0612    1.5603   -0.0639 C   0  0  0  0  0  0  0  0  0  0  0  0
    1.0758    1.4869    0.4416 O   0  0  0  0  0  0  0  0  0  0  0  0
    4.0179    0.0000    0.1177 O   0  0  0  0  0  0  0  0  0  0  0  0
    5.5286    6.6648   -0.9036 H   0  0  0  0  0  0  0  0  0  0  0  0
    0.7574    4.4781    0.1403 H   0  0  0  0  0  0  0  0  0  0  0  0
    3.3382    8.2047   -0.7381 H   0  0  0  0  0  0  0  0  0  0  0  0
    7.2974    4.3729   -0.9065 H   0  0  0  0  0  0  0  0  0  0  0  0
    0.5343    8.5968   -1.9470 H   0  0  0  0  0  0  0  0  0  0  0  0
    0.0000    6.4116   -1.6126 H   0  0  0  0  0  0  0  0  0  0  0  0
    1.6475    6.9644   -3.0828 H   0  0  0  0  0  0  0  0  0  0  0  0
    1.0501    8.9783    1.1669 H   0  0  0  0  0  0  0  0  0  0  0  0
    2.5190    7.6074    2.2424 H   0  0  0  0  0  0  0  0  0  0  0  0
    0.5125    6.7992    1.5342 H   0  0  0  0  0  0  0  0  0  0  0  0
    6.7036    1.5088   -0.4767 H   0  0  0  0  0  0  0  0  0  0  0  0
    1.4326    0.3186    0.5155 H   0  0  0  0  0  0  0  0  0  0  0  0
  1  2  2  0  0  0  0
  1  3  1  0  0  0  0
  1  4  1  0  0  0  0
  2  5  1  0  0  0  0
  2 13  1  0  0  0  0
  3  6  2  0  0  0  0
  3 14  1  0  0  0  0
  4  7  1  6  0  0  0
  4  8  1  1  0  0  0
  4 15  1  0  0  0  0
  5  9  2  0  0  0  0
  5 16  1  0  0  0  0
  6 10  1  0  0  0  0
  6 11  1  0  0  0  0
  7 17  1  0  0  0  0
  7 18  1  0  0  0  0
  7 19  1  6  0  0  0
  8 20  1  0  0  0  0
  8 21  1  1  0  0  0
  8 22  1  0  0  0  0
  9 10  1  0  0  0  0
  9 23  1  0  0  0  0
 10 12  2  0  0  0  0
 11 24  1  0  0  0  0
M  END
>  <Formula> (165)
C10H12O2

>  <Name> (165)
2-HYDROXY-4-ISOPROPYL-2,4,6-CYCLOHEPTATRIENONE

>  <CAS-Nr> (165)
499-44-5

>  <EINECS> (165)
207-880-7

>  <LD50-rat-oral> (165)
>500

>  <Compound classification> (165)
Monoterpene

>  <Microorganism> (165)
Trichoderma viride

>  <Microorganism classification> (165)
fungi

>  <MIC> (165)
100

>  <Annotation> (165)
Hinokitiol Cu-salt

>  <Method abbreviation> (165)
SDT

>  <Ref-Nr> (165)
6297

>  <Marker> (165)
0

>  <Method> (165)
Serial dilution test; method in Japanese - not translated

>  <Reference> (165)
Yamaguchi, Y.: Growth Inhibitor for Cariogenic Bacteria; Fragrance Journal 46, 56-9 (1981)

>  <mol_id> (165)
179

>  <LD50-mouse-oral> (165)
760

>  <LD50-mou-ip> (165)
85

>  <MolWeight> (165)
164.20

>  <Nickname> (165)
Hinokitiol

>  <other Names> (165)
beta-Thujaplicin, 4-Isopropyltropolone

>  <LD50-mou-iv> (165)
128

$$$$

csChmFindW11180110282D

 65 65  0  0  0  0  0  0  0  0999 V2000
    7.5510    5.3215   -1.9048 C   0  0  0  0  0  0  0  0  0  0  0  0
    7.9081    6.7401   -0.5255 C   0  0  0  0  0  0  0  0  0  0  0  0
    9.2257    4.2051   -2.1332 C   0  0  0  0  0  0  0  0  0  0  0  0
    5.9235    4.1867   -1.4707 C   0  0  0  0  0  0  0  0  0  0  0  0
    9.4411    8.0179   -0.9589 C   0  0  0  0  0  0  0  0  0  0  0  0
    7.0301    6.8921    0.8545 O   0  0  0  0  0  0  0  0  0  0  0  0
   10.8504    5.2632   -2.3987 C   0  0  0  0  0  0  0  0  0  0  0  0
    9.1626    2.5606   -2.1885 O   0  0  0  0  0  0  0  0  0  0  0  0
    4.2335    5.0670   -1.9963 C   0  0  0  0  0  0  0  0  0  0  0  0
   10.8602    7.0499   -2.0264 C   0  0  0  0  0  0  0  0  0  0  0  0
   10.2123    8.6730    0.8243 C   0  0  0  0  0  0  0  0  0  0  0  0
    8.7149    9.5587   -2.0985 C   0  0  0  0  0  0  0  0  0  0  0  0
   12.4356    4.4114   -3.2175 C   0  0  0  0  0  0  0  0  0  0  0  0
    2.6384    4.2567   -2.0493 C   0  0  0  0  0  0  0  0  0  0  0  0
   12.1887    8.1773   -2.5312 O   0  0  0  0  0  0  0  0  0  0  0  0
   11.6459   10.0242    0.7074 C   0  0  0  0  0  0  0  0  0  0  0  0
    7.1921   10.5130   -1.2782 C   0  0  0  0  0  0  0  0  0  0  0  0
   13.3268    2.8309   -2.3346 C   0  0  0  0  0  0  0  0  0  0  0  0
   13.1027    5.0674   -4.5851 O   0  0  0  0  0  0  0  0  0  0  0  0
    1.0032    5.2402   -2.5829 C   0  0  0  0  0  0  0  0  0  0  0  0
    2.3419    2.3566   -1.5893 C   0  0  0  0  0  0  0  0  0  0  0  0
   12.4428   10.7462    2.1405 C   0  0  0  0  0  0  0  0  0  0  0  0
    6.4382   11.9762   -1.9838 C   0  0  0  0  0  0  0  0  0  0  0  0
   12.8644    1.1288   -3.3241 C   0  0  0  0  0  0  0  0  0  0  0  0
   12.9200    2.6728   -0.3673 C   0  0  0  0  0  0  0  0  0  0  0  0
   13.8759   12.0993    1.9471 C   0  0  0  0  0  0  0  0  0  0  0  0
   11.9922   10.2694    4.0058 C   0  0  0  0  0  0  0  0  0  0  0  0
    4.9114   12.8753   -1.0995 C   0  0  0  0  0  0  0  0  0  0  0  0
    7.0471   12.8225   -3.6643 C   0  0  0  0  0  0  0  0  0  0  0  0
    7.3210    6.0179   -3.2235 H   0  0  0  0  0  0  0  0  0  0  0  0
    5.9010    3.9014    0.0025 H   0  0  0  0  0  0  0  0  0  0  0  0
    6.0612    2.8692   -2.1783 H   0  0  0  0  0  0  0  0  0  0  0  0
    4.3374    6.4958   -2.3341 H   0  0  0  0  0  0  0  0  0  0  0  0
   10.7149    7.4769    1.5791 H   0  0  0  0  0  0  0  0  0  0  0  0
    9.0653    9.2393    1.6173 H   0  0  0  0  0  0  0  0  0  0  0  0
    8.3015    9.0055   -3.4318 H   0  0  0  0  0  0  0  0  0  0  0  0
    9.8421   10.5178   -2.3509 H   0  0  0  0  0  0  0  0  0  0  0  0
   13.0510    7.5616   -3.2854 H   0  0  0  0  0  0  0  0  0  0  0  0
   12.0634   10.4327   -0.6431 H   0  0  0  0  0  0  0  0  0  0  0  0
    6.6799    9.9561   -0.0139 H   0  0  0  0  0  0  0  0  0  0  0  0
   14.8107    3.0650   -2.4882 H   0  0  0  0  0  0  0  0  0  0  0  0
    0.3952    4.6024   -3.7874 H   0  0  0  0  0  0  0  0  0  0  0  0
    1.2938    6.6669   -2.9012 H   0  0  0  0  0  0  0  0  0  0  0  0
    0.0000    5.1994   -1.4787 H   0  0  0  0  0  0  0  0  0  0  0  0
    1.3797    2.2548   -0.4522 H   0  0  0  0  0  0  0  0  0  0  0  0
    3.6041    1.6707   -1.1937 H   0  0  0  0  0  0  0  0  0  0  0  0
    1.7582    1.6336   -2.7575 H   0  0  0  0  0  0  0  0  0  0  0  0
   13.6673    0.0000   -2.7766 H   0  0  0  0  0  0  0  0  0  0  0  0
   13.1706    1.2779   -4.7744 H   0  0  0  0  0  0  0  0  0  0  0  0
   11.4181    0.8035   -3.1656 H   0  0  0  0  0  0  0  0  0  0  0  0
   13.7558    1.5918    0.2281 H   0  0  0  0  0  0  0  0  0  0  0  0
   11.4862    2.3317   -0.1458 H   0  0  0  0  0  0  0  0  0  0  0  0
   13.2231    3.9495    0.3369 H   0  0  0  0  0  0  0  0  0  0  0  0
   13.4136   13.4106    2.4910 H   0  0  0  0  0  0  0  0  0  0  0  0
   14.2657   12.2929    0.5218 H   0  0  0  0  0  0  0  0  0  0  0  0
   15.0840   11.6775    2.7148 H   0  0  0  0  0  0  0  0  0  0  0  0
   12.0439   11.4775    4.8800 H   0  0  0  0  0  0  0  0  0  0  0  0
   12.9794    9.2767    4.5257 H   0  0  0  0  0  0  0  0  0  0  0  0
   10.6301    9.6724    4.1125 H   0  0  0  0  0  0  0  0  0  0  0  0
    3.7015   12.7997   -1.9707 H   0  0  0  0  0  0  0  0  0  0  0  0
    5.2310   14.3151   -0.8713 H   0  0  0  0  0  0  0  0  0  0  0  0
    4.5853   12.2493    0.2135 H   0  0  0  0  0  0  0  0  0  0  0  0
    5.8791   13.2977   -4.4618 H   0  0  0  0  0  0  0  0  0  0  0  0
    7.8363   11.8787   -4.5063 H   0  0  0  0  0  0  0  0  0  0  0  0
    7.9078   14.0024   -3.3514 H   0  0  0  0  0  0  0  0  0  0  0  0
  1  2  1  1  0  0  0
  1  3  1  0  0  0  0
  1  4  1  0  0  0  0
  1 30  1  6  0  0  0
  2  5  1  0  0  0  0
  2  6  2  0  0  0  0
  3  7  1  0  0  0  0
  3  8  2  0  0  0  0
  4  9  1  0  0  0  0
  4 31  1  1  0  0  0
  4 32  1  6  0  0  0
  5 10  1  6  0  0  0
  5 11  1  1  0  0  0
  5 12  1  6  0  0  0
  7 10  2  0  0  0  0
  7 13  1  0  0  0  0
  9 14  2  0  0  0  0
  9 33  1  0  0  0  0
 10 15  1  0  0  0  0
 11 16  1  0  0  0  0
 11 34  1  1  0  0  0
 11 35  1  1  0  0  0
 12 17  1  0  0  0  0
 12 36  1  6  0  0  0
 12 37  1  0  0  0  0
 13 18  1  0  0  0  0
 13 19  2  0  0  0  0
 14 20  1  0  0  0  0
 14 21  1  0  0  0  0
 15 38  1  6  0  0  0
 16 22  2  0  0  0  0
 16 39  1  6  0  0  0
 17 23  2  0  0  0  0
 17 40  1  1  0  0  0
 18 24  1  6  0  0  0
 18 25  1  1  0  0  0
 18 41  1  0  0  0  0
 20 42  1  6  0  0  0
 20 43  1  0  0  0  0
 20 44  1  1  0  0  0
 21 45  1  1  0  0  0
 21 46  1  0  0  0  0
 21 47  1  6  0  0  0
 22 26  1  0  0  0  0
 22 27  1  1  0  0  0
 23 28  1  0  0  0  0
 23 29  1  6  0  0  0
 24 48  1  0  0  0  0
 24 49  1  6  0  0  0
 24 50  1  0  0  0  0
 25 51  1  0  0  0  0
 25 52  1  0  0  0  0
 25 53  1  1  0  0  0
 26 54  1  0  0  0  0
 26 55  1  6  0  0  0
 26 56  1  1  0  0  0
 27 57  1  1  0  0  0
 27 58  1  0  0  0  0
 27 59  1  0  0  0  0
 28 60  1  6  0  0  0
 28 61  1  0  0  0  0
 28 62  1  1  0  0  0
 29 63  1  6  0  0  0
 29 64  1  6  0  0  0
 29 65  1  0  0  0  0
M  END
>  <Formula> (166)
C25H36O4

>  <Name> (166)
5-HYDROXY-4-ISOBUTYRYL-2,6,6-TRIS-(3-METHYL-2-BUTENYL)-4-CYCLOHEXENE-1,3-DIONE

>  <CAS-Nr> (166)
468-27-9

>  <EINECS> (166)
---

>  <Compound classification> (166)
Terpene related

>  <Microorganism> (166)
Pseudomonas fluorescens

>  <Microorganism classification> (166)
Bac-

>  <ADT evaluation> (166)
1

>  <Method abbreviation> (166)
ADT

>  <Ref-Nr> (166)
6313

>  <Marker> (166)
0

>  <Method> (166)
Serial dilution test; Inoculum size: adjusted; Medium: glucose-salt broth; pH: ---; Incubation-temperature: 37 degrees Centigrade; Incubation-time: 12h; Solubility enhancer: ethanol Agar diffusion test; Inoculum size: adjusted; Medium: Antibiotic and Sulfonamide Sensitivity-Test agar; Incubation-temperature: 37 degrees Centigrade; Incubation-time: cited; Compound dose: 10 and 100 microgram/disks soluted in ethenol

>  <Reference> (166)
Schmalreck, A.F., Teuber, M., Reininger, W., Hartl, A.: Structural Features Determining the Antibiotic Potencies of Natural and Synthetic Hop Bitter Resins, Their Precursors and Derivatives; Canadian Journal of Microbiology 21, 205-12 (1975)

>  <mol_id> (166)
1146

>  <MolWeight> (166)
400.55

>  <Nickname> (166)
Colupulone

$$$$

csChmFindW11180110282D

 65 65  0  0  0  0  0  0  0  0999 V2000
    7.5510    5.3215   -1.9048 C   0  0  0  0  0  0  0  0  0  0  0  0
    7.9081    6.7401   -0.5255 C   0  0  0  0  0  0  0  0  0  0  0  0
    9.2257    4.2051   -2.1332 C   0  0  0  0  0  0  0  0  0  0  0  0
    5.9235    4.1867   -1.4707 C   0  0  0  0  0  0  0  0  0  0  0  0
    9.4411    8.0179   -0.9589 C   0  0  0  0  0  0  0  0  0  0  0  0
    7.0301    6.8921    0.8545 O   0  0  0  0  0  0  0  0  0  0  0  0
   10.8504    5.2632   -2.3987 C   0  0  0  0  0  0  0  0  0  0  0  0
    9.1626    2.5606   -2.1885 O   0  0  0  0  0  0  0  0  0  0  0  0
    4.2335    5.0670   -1.9963 C   0  0  0  0  0  0  0  0  0  0  0  0
   10.8602    7.0499   -2.0264 C   0  0  0  0  0  0  0  0  0  0  0  0
   10.2123    8.6730    0.8243 C   0  0  0  0  0  0  0  0  0  0  0  0
    8.7149    9.5587   -2.0985 C   0  0  0  0  0  0  0  0  0  0  0  0
   12.4356    4.4114   -3.2175 C   0  0  0  0  0  0  0  0  0  0  0  0
    2.6384    4.2567   -2.0493 C   0  0  0  0  0  0  0  0  0  0  0  0
   12.1887    8.1773   -2.5312 O   0  0  0  0  0  0  0  0  0  0  0  0
   11.6459   10.0242    0.7074 C   0  0  0  0  0  0  0  0  0  0  0  0
    7.1921   10.5130   -1.2782 C   0  0  0  0  0  0  0  0  0  0  0  0
   13.3268    2.8309   -2.3346 C   0  0  0  0  0  0  0  0  0  0  0  0
   13.1027    5.0674   -4.5851 O   0  0  0  0  0  0  0  0  0  0  0  0
    1.0032    5.2402   -2.5829 C   0  0  0  0  0  0  0  0  0  0  0  0
    2.3419    2.3566   -1.5893 C   0  0  0  0  0  0  0  0  0  0  0  0
   12.4428   10.7462    2.1405 C   0  0  0  0  0  0  0  0  0  0  0  0
    6.4382   11.9762   -1.9838 C   0  0  0  0  0  0  0  0  0  0  0  0
   12.8644    1.1288   -3.3241 C   0  0  0  0  0  0  0  0  0  0  0  0
   12.9200    2.6728   -0.3673 C   0  0  0  0  0  0  0  0  0  0  0  0
   13.8759   12.0993    1.9471 C   0  0  0  0  0  0  0  0  0  0  0  0
   11.9922   10.2694    4.0058 C   0  0  0  0  0  0  0  0  0  0  0  0
    4.9114   12.8753   -1.0995 C   0  0  0  0  0  0  0  0  0  0  0  0
    7.0471   12.8225   -3.6643 C   0  0  0  0  0  0  0  0  0  0  0  0
    7.3210    6.0179   -3.2235 H   0  0  0  0  0  0  0  0  0  0  0  0
    5.9010    3.9014    0.0025 H   0  0  0  0  0  0  0  0  0  0  0  0
    6.0612    2.8692   -2.1783 H   0  0  0  0  0  0  0  0  0  0  0  0
    4.3374    6.4958   -2.3341 H   0  0  0  0  0  0  0  0  0  0  0  0
   10.7149    7.4769    1.5791 H   0  0  0  0  0  0  0  0  0  0  0  0
    9.0653    9.2393    1.6173 H   0  0  0  0  0  0  0  0  0  0  0  0
    8.3015    9.0055   -3.4318 H   0  0  0  0  0  0  0  0  0  0  0  0
    9.8421   10.5178   -2.3509 H   0  0  0  0  0  0  0  0  0  0  0  0
   13.0510    7.5616   -3.2854 H   0  0  0  0  0  0  0  0  0  0  0  0
   12.0634   10.4327   -0.6431 H   0  0  0  0  0  0  0  0  0  0  0  0
    6.6799    9.9561   -0.0139 H   0  0  0  0  0  0  0  0  0  0  0  0
   14.8107    3.0650   -2.4882 H   0  0  0  0  0  0  0  0  0  0  0  0
    0.3952    4.6024   -3.7874 H   0  0  0  0  0  0  0  0  0  0  0  0
    1.2938    6.6669   -2.9012 H   0  0  0  0  0  0  0  0  0  0  0  0
    0.0000    5.1994   -1.4787 H   0  0  0  0  0  0  0  0  0  0  0  0
    1.3797    2.2548   -0.4522 H   0  0  0  0  0  0  0  0  0  0  0  0
    3.6041    1.6707   -1.1937 H   0  0  0  0  0  0  0  0  0  0  0  0
    1.7582    1.6336   -2.7575 H   0  0  0  0  0  0  0  0  0  0  0  0
   13.6673    0.0000   -2.7766 H   0  0  0  0  0  0  0  0  0  0  0  0
   13.1706    1.2779   -4.7744 H   0  0  0  0  0  0  0  0  0  0  0  0
   11.4181    0.8035   -3.1656 H   0  0  0  0  0  0  0  0  0  0  0  0
   13.7558    1.5918    0.2281 H   0  0  0  0  0  0  0  0  0  0  0  0
   11.4862    2.3317   -0.1458 H   0  0  0  0  0  0  0  0  0  0  0  0
   13.2231    3.9495    0.3369 H   0  0  0  0  0  0  0  0  0  0  0  0
   13.4136   13.4106    2.4910 H   0  0  0  0  0  0  0  0  0  0  0  0
   14.2657   12.2929    0.5218 H   0  0  0  0  0  0  0  0  0  0  0  0
   15.0840   11.6775    2.7148 H   0  0  0  0  0  0  0  0  0  0  0  0
   12.0439   11.4775    4.8800 H   0  0  0  0  0  0  0  0  0  0  0  0
   12.9794    9.2767    4.5257 H   0  0  0  0  0  0  0  0  0  0  0  0
   10.6301    9.6724    4.1125 H   0  0  0  0  0  0  0  0  0  0  0  0
    3.7015   12.7997   -1.9707 H   0  0  0  0  0  0  0  0  0  0  0  0
    5.2310   14.3151   -0.8713 H   0  0  0  0  0  0  0  0  0  0  0  0
    4.5853   12.2493    0.2135 H   0  0  0  0  0  0  0  0  0  0  0  0
    5.8791   13.2977   -4.4618 H   0  0  0  0  0  0  0  0  0  0  0  0
    7.8363   11.8787   -4.5063 H   0  0  0  0  0  0  0  0  0  0  0  0
    7.9078   14.0024   -3.3514 H   0  0  0  0  0  0  0  0  0  0  0  0
  1  2  1  1  0  0  0
  1  3  1  0  0  0  0
  1  4  1  0  0  0  0
  1 30  1  6  0  0  0
  2  5  1  0  0  0  0
  2  6  2  0  0  0  0
  3  7  1  0  0  0  0
  3  8  2  0  0  0  0
  4  9  1  0  0  0  0
  4 31  1  1  0  0  0
  4 32  1  6  0  0  0
  5 10  1  6  0  0  0
  5 11  1  1  0  0  0
  5 12  1  6  0  0  0
  7 10  2  0  0  0  0
  7 13  1  0  0  0  0
  9 14  2  0  0  0  0
  9 33  1  0  0  0  0
 10 15  1  0  0  0  0
 11 16  1  0  0  0  0
 11 34  1  1  0  0  0
 11 35  1  1  0  0  0
 12 17  1  0  0  0  0
 12 36  1  6  0  0  0
 12 37  1  0  0  0  0
 13 18  1  0  0  0  0
 13 19  2  0  0  0  0
 14 20  1  0  0  0  0
 14 21  1  0  0  0  0
 15 38  1  6  0  0  0
 16 22  2  0  0  0  0
 16 39  1  6  0  0  0
 17 23  2  0  0  0  0
 17 40  1  1  0  0  0
 18 24  1  6  0  0  0
 18 25  1  1  0  0  0
 18 41  1  0  0  0  0
 20 42  1  6  0  0  0
 20 43  1  0  0  0  0
 20 44  1  1  0  0  0
 21 45  1  1  0  0  0
 21 46  1  0  0  0  0
 21 47  1  6  0  0  0
 22 26  1  0  0  0  0
 22 27  1  1  0  0  0
 23 28  1  0  0  0  0
 23 29  1  6  0  0  0
 24 48  1  0  0  0  0
 24 49  1  6  0  0  0
 24 50  1  0  0  0  0
 25 51  1  0  0  0  0
 25 52  1  0  0  0  0
 25 53  1  1  0  0  0
 26 54  1  0  0  0  0
 26 55  1  6  0  0  0
 26 56  1  1  0  0  0
 27 57  1  1  0  0  0
 27 58  1  0  0  0  0
 27 59  1  0  0  0  0
 28 60  1  6  0  0  0
 28 61  1  0  0  0  0
 28 62  1  1  0  0  0
 29 63  1  6  0  0  0
 29 64  1  6  0  0  0
 29 65  1  0  0  0  0
M  END
>  <Formula> (167)
C25H36O4

>  <Name> (167)
5-HYDROXY-4-ISOBUTYRYL-2,6,6-TRIS-(3-METHYL-2-BUTENYL)-4-CYCLOHEXENE-1,3-DIONE

>  <CAS-Nr> (167)
468-27-9

>  <EINECS> (167)
---

>  <Compound classification> (167)
Terpene related

>  <Microorganism> (167)
Salmonella typhimurium

>  <Microorganism type> (167)
1102

>  <Microorganism classification> (167)
Bac-

>  <ADT evaluation> (167)
2

>  <Method abbreviation> (167)
ADT

>  <Ref-Nr> (167)
6313

>  <Marker> (167)
0

>  <Method> (167)
Serial dilution test; Inoculum size: adjusted; Medium: glucose-salt broth; pH: ---; Incubation-temperature: 37 degrees Centigrade; Incubation-time: 12h; Solubility enhancer: ethanol Agar diffusion test; Inoculum size: adjusted; Medium: Antibiotic and Sulfonamide Sensitivity-Test agar; Incubation-temperature: 37 degrees Centigrade; Incubation-time: cited; Compound dose: 10 and 100 microgram/disks soluted in ethenol

>  <Reference> (167)
Schmalreck, A.F., Teuber, M., Reininger, W., Hartl, A.: Structural Features Determining the Antibiotic Potencies of Natural and Synthetic Hop Bitter Resins, Their Precursors and Derivatives; Canadian Journal of Microbiology 21, 205-12 (1975)

>  <mol_id> (167)
1146

>  <MolWeight> (167)
400.55

>  <Nickname> (167)
Colupulone

$$$$

csChmFindW11180110282D

 65 65  0  0  0  0  0  0  0  0999 V2000
    7.5510    5.3215   -1.9048 C   0  0  0  0  0  0  0  0  0  0  0  0
    7.9081    6.7401   -0.5255 C   0  0  0  0  0  0  0  0  0  0  0  0
    9.2257    4.2051   -2.1332 C   0  0  0  0  0  0  0  0  0  0  0  0
    5.9235    4.1867   -1.4707 C   0  0  0  0  0  0  0  0  0  0  0  0
    9.4411    8.0179   -0.9589 C   0  0  0  0  0  0  0  0  0  0  0  0
    7.0301    6.8921    0.8545 O   0  0  0  0  0  0  0  0  0  0  0  0
   10.8504    5.2632   -2.3987 C   0  0  0  0  0  0  0  0  0  0  0  0
    9.1626    2.5606   -2.1885 O   0  0  0  0  0  0  0  0  0  0  0  0
    4.2335    5.0670   -1.9963 C   0  0  0  0  0  0  0  0  0  0  0  0
   10.8602    7.0499   -2.0264 C   0  0  0  0  0  0  0  0  0  0  0  0
   10.2123    8.6730    0.8243 C   0  0  0  0  0  0  0  0  0  0  0  0
    8.7149    9.5587   -2.0985 C   0  0  0  0  0  0  0  0  0  0  0  0
   12.4356    4.4114   -3.2175 C   0  0  0  0  0  0  0  0  0  0  0  0
    2.6384    4.2567   -2.0493 C   0  0  0  0  0  0  0  0  0  0  0  0
   12.1887    8.1773   -2.5312 O   0  0  0  0  0  0  0  0  0  0  0  0
   11.6459   10.0242    0.7074 C   0  0  0  0  0  0  0  0  0  0  0  0
    7.1921   10.5130   -1.2782 C   0  0  0  0  0  0  0  0  0  0  0  0
   13.3268    2.8309   -2.3346 C   0  0  0  0  0  0  0  0  0  0  0  0
   13.1027    5.0674   -4.5851 O   0  0  0  0  0  0  0  0  0  0  0  0
    1.0032    5.2402   -2.5829 C   0  0  0  0  0  0  0  0  0  0  0  0
    2.3419    2.3566   -1.5893 C   0  0  0  0  0  0  0  0  0  0  0  0
   12.4428   10.7462    2.1405 C   0  0  0  0  0  0  0  0  0  0  0  0
    6.4382   11.9762   -1.9838 C   0  0  0  0  0  0  0  0  0  0  0  0
   12.8644    1.1288   -3.3241 C   0  0  0  0  0  0  0  0  0  0  0  0
   12.9200    2.6728   -0.3673 C   0  0  0  0  0  0  0  0  0  0  0  0
   13.8759   12.0993    1.9471 C   0  0  0  0  0  0  0  0  0  0  0  0
   11.9922   10.2694    4.0058 C   0  0  0  0  0  0  0  0  0  0  0  0
    4.9114   12.8753   -1.0995 C   0  0  0  0  0  0  0  0  0  0  0  0
    7.0471   12.8225   -3.6643 C   0  0  0  0  0  0  0  0  0  0  0  0
    7.3210    6.0179   -3.2235 H   0  0  0  0  0  0  0  0  0  0  0  0
    5.9010    3.9014    0.0025 H   0  0  0  0  0  0  0  0  0  0  0  0
    6.0612    2.8692   -2.1783 H   0  0  0  0  0  0  0  0  0  0  0  0
    4.3374    6.4958   -2.3341 H   0  0  0  0  0  0  0  0  0  0  0  0
   10.7149    7.4769    1.5791 H   0  0  0  0  0  0  0  0  0  0  0  0
    9.0653    9.2393    1.6173 H   0  0  0  0  0  0  0  0  0  0  0  0
    8.3015    9.0055   -3.4318 H   0  0  0  0  0  0  0  0  0  0  0  0
    9.8421   10.5178   -2.3509 H   0  0  0  0  0  0  0  0  0  0  0  0
   13.0510    7.5616   -3.2854 H   0  0  0  0  0  0  0  0  0  0  0  0
   12.0634   10.4327   -0.6431 H   0  0  0  0  0  0  0  0  0  0  0  0
    6.6799    9.9561   -0.0139 H   0  0  0  0  0  0  0  0  0  0  0  0
   14.8107    3.0650   -2.4882 H   0  0  0  0  0  0  0  0  0  0  0  0
    0.3952    4.6024   -3.7874 H   0  0  0  0  0  0  0  0  0  0  0  0
    1.2938    6.6669   -2.9012 H   0  0  0  0  0  0  0  0  0  0  0  0
    0.0000    5.1994   -1.4787 H   0  0  0  0  0  0  0  0  0  0  0  0
    1.3797    2.2548   -0.4522 H   0  0  0  0  0  0  0  0  0  0  0  0
    3.6041    1.6707   -1.1937 H   0  0  0  0  0  0  0  0  0  0  0  0
    1.7582    1.6336   -2.7575 H   0  0  0  0  0  0  0  0  0  0  0  0
   13.6673    0.0000   -2.7766 H   0  0  0  0  0  0  0  0  0  0  0  0
   13.1706    1.2779   -4.7744 H   0  0  0  0  0  0  0  0  0  0  0  0
   11.4181    0.8035   -3.1656 H   0  0  0  0  0  0  0  0  0  0  0  0
   13.7558    1.5918    0.2281 H   0  0  0  0  0  0  0  0  0  0  0  0
   11.4862    2.3317   -0.1458 H   0  0  0  0  0  0  0  0  0  0  0  0
   13.2231    3.9495    0.3369 H   0  0  0  0  0  0  0  0  0  0  0  0
   13.4136   13.4106    2.4910 H   0  0  0  0  0  0  0  0  0  0  0  0
   14.2657   12.2929    0.5218 H   0  0  0  0  0  0  0  0  0  0  0  0
   15.0840   11.6775    2.7148 H   0  0  0  0  0  0  0  0  0  0  0  0
   12.0439   11.4775    4.8800 H   0  0  0  0  0  0  0  0  0  0  0  0
   12.9794    9.2767    4.5257 H   0  0  0  0  0  0  0  0  0  0  0  0
   10.6301    9.6724    4.1125 H   0  0  0  0  0  0  0  0  0  0  0  0
    3.7015   12.7997   -1.9707 H   0  0  0  0  0  0  0  0  0  0  0  0
    5.2310   14.3151   -0.8713 H   0  0  0  0  0  0  0  0  0  0  0  0
    4.5853   12.2493    0.2135 H   0  0  0  0  0  0  0  0  0  0  0  0
    5.8791   13.2977   -4.4618 H   0  0  0  0  0  0  0  0  0  0  0  0
    7.8363   11.8787   -4.5063 H   0  0  0  0  0  0  0  0  0  0  0  0
    7.9078   14.0024   -3.3514 H   0  0  0  0  0  0  0  0  0  0  0  0
  1  2  1  1  0  0  0
  1  3  1  0  0  0  0
  1  4  1  0  0  0  0
  1 30  1  6  0  0  0
  2  5  1  0  0  0  0
  2  6  2  0  0  0  0
  3  7  1  0  0  0  0
  3  8  2  0  0  0  0
  4  9  1  0  0  0  0
  4 31  1  1  0  0  0
  4 32  1  6  0  0  0
  5 10  1  6  0  0  0
  5 11  1  1  0  0  0
  5 12  1  6  0  0  0
  7 10  2  0  0  0  0
  7 13  1  0  0  0  0
  9 14  2  0  0  0  0
  9 33  1  0  0  0  0
 10 15  1  0  0  0  0
 11 16  1  0  0  0  0
 11 34  1  1  0  0  0
 11 35  1  1  0  0  0
 12 17  1  0  0  0  0
 12 36  1  6  0  0  0
 12 37  1  0  0  0  0
 13 18  1  0  0  0  0
 13 19  2  0  0  0  0
 14 20  1  0  0  0  0
 14 21  1  0  0  0  0
 15 38  1  6  0  0  0
 16 22  2  0  0  0  0
 16 39  1  6  0  0  0
 17 23  2  0  0  0  0
 17 40  1  1  0  0  0
 18 24  1  6  0  0  0
 18 25  1  1  0  0  0
 18 41  1  0  0  0  0
 20 42  1  6  0  0  0
 20 43  1  0  0  0  0
 20 44  1  1  0  0  0
 21 45  1  1  0  0  0
 21 46  1  0  0  0  0
 21 47  1  6  0  0  0
 22 26  1  0  0  0  0
 22 27  1  1  0  0  0
 23 28  1  0  0  0  0
 23 29  1  6  0  0  0
 24 48  1  0  0  0  0
 24 49  1  6  0  0  0
 24 50  1  0  0  0  0
 25 51  1  0  0  0  0
 25 52  1  0  0  0  0
 25 53  1  1  0  0  0
 26 54  1  0  0  0  0
 26 55  1  6  0  0  0
 26 56  1  1  0  0  0
 27 57  1  1  0  0  0
 27 58  1  0  0  0  0
 27 59  1  0  0  0  0
 28 60  1  6  0  0  0
 28 61  1  0  0  0  0
 28 62  1  1  0  0  0
 29 63  1  6  0  0  0
 29 64  1  6  0  0  0
 29 65  1  0  0  0  0
M  END
>  <Formula> (168)
C25H36O4

>  <Name> (168)
5-HYDROXY-4-ISOBUTYRYL-2,6,6-TRIS-(3-METHYL-2-BUTENYL)-4-CYCLOHEXENE-1,3-DIONE

>  <CAS-Nr> (168)
468-27-9

>  <EINECS> (168)
---

>  <Compound classification> (168)
Terpene related

>  <Microorganism> (168)
Serratia marcescens

>  <Microorganism classification> (168)
Bac-

>  <ADT evaluation> (168)
1

>  <Method abbreviation> (168)
ADT

>  <Ref-Nr> (168)
6313

>  <Marker> (168)
0

>  <Method> (168)
Serial dilution test; Inoculum size: adjusted; Medium: glucose-salt broth; pH: ---; Incubation-temperature: 37 degrees Centigrade; Incubation-time: 12h; Solubility enhancer: ethanol Agar diffusion test; Inoculum size: adjusted; Medium: Antibiotic and Sulfonamide Sensitivity-Test agar; Incubation-temperature: 37 degrees Centigrade; Incubation-time: cited; Compound dose: 10 and 100 microgram/disks soluted in ethenol

>  <Reference> (168)
Schmalreck, A.F., Teuber, M., Reininger, W., Hartl, A.: Structural Features Determining the Antibiotic Potencies of Natural and Synthetic Hop Bitter Resins, Their Precursors and Derivatives; Canadian Journal of Microbiology 21, 205-12 (1975)

>  <mol_id> (168)
1146

>  <MolWeight> (168)
400.55

>  <Nickname> (168)
Colupulone

$$$$

csChmFindW11180110282D

 65 65  0  0  0  0  0  0  0  0999 V2000
    7.5510    5.3215   -1.9048 C   0  0  0  0  0  0  0  0  0  0  0  0
    7.9081    6.7401   -0.5255 C   0  0  0  0  0  0  0  0  0  0  0  0
    9.2257    4.2051   -2.1332 C   0  0  0  0  0  0  0  0  0  0  0  0
    5.9235    4.1867   -1.4707 C   0  0  0  0  0  0  0  0  0  0  0  0
    9.4411    8.0179   -0.9589 C   0  0  0  0  0  0  0  0  0  0  0  0
    7.0301    6.8921    0.8545 O   0  0  0  0  0  0  0  0  0  0  0  0
   10.8504    5.2632   -2.3987 C   0  0  0  0  0  0  0  0  0  0  0  0
    9.1626    2.5606   -2.1885 O   0  0  0  0  0  0  0  0  0  0  0  0
    4.2335    5.0670   -1.9963 C   0  0  0  0  0  0  0  0  0  0  0  0
   10.8602    7.0499   -2.0264 C   0  0  0  0  0  0  0  0  0  0  0  0
   10.2123    8.6730    0.8243 C   0  0  0  0  0  0  0  0  0  0  0  0
    8.7149    9.5587   -2.0985 C   0  0  0  0  0  0  0  0  0  0  0  0
   12.4356    4.4114   -3.2175 C   0  0  0  0  0  0  0  0  0  0  0  0
    2.6384    4.2567   -2.0493 C   0  0  0  0  0  0  0  0  0  0  0  0
   12.1887    8.1773   -2.5312 O   0  0  0  0  0  0  0  0  0  0  0  0
   11.6459   10.0242    0.7074 C   0  0  0  0  0  0  0  0  0  0  0  0
    7.1921   10.5130   -1.2782 C   0  0  0  0  0  0  0  0  0  0  0  0
   13.3268    2.8309   -2.3346 C   0  0  0  0  0  0  0  0  0  0  0  0
   13.1027    5.0674   -4.5851 O   0  0  0  0  0  0  0  0  0  0  0  0
    1.0032    5.2402   -2.5829 C   0  0  0  0  0  0  0  0  0  0  0  0
    2.3419    2.3566   -1.5893 C   0  0  0  0  0  0  0  0  0  0  0  0
   12.4428   10.7462    2.1405 C   0  0  0  0  0  0  0  0  0  0  0  0
    6.4382   11.9762   -1.9838 C   0  0  0  0  0  0  0  0  0  0  0  0
   12.8644    1.1288   -3.3241 C   0  0  0  0  0  0  0  0  0  0  0  0
   12.9200    2.6728   -0.3673 C   0  0  0  0  0  0  0  0  0  0  0  0
   13.8759   12.0993    1.9471 C   0  0  0  0  0  0  0  0  0  0  0  0
   11.9922   10.2694    4.0058 C   0  0  0  0  0  0  0  0  0  0  0  0
    4.9114   12.8753   -1.0995 C   0  0  0  0  0  0  0  0  0  0  0  0
    7.0471   12.8225   -3.6643 C   0  0  0  0  0  0  0  0  0  0  0  0
    7.3210    6.0179   -3.2235 H   0  0  0  0  0  0  0  0  0  0  0  0
    5.9010    3.9014    0.0025 H   0  0  0  0  0  0  0  0  0  0  0  0
    6.0612    2.8692   -2.1783 H   0  0  0  0  0  0  0  0  0  0  0  0
    4.3374    6.4958   -2.3341 H   0  0  0  0  0  0  0  0  0  0  0  0
   10.7149    7.4769    1.5791 H   0  0  0  0  0  0  0  0  0  0  0  0
    9.0653    9.2393    1.6173 H   0  0  0  0  0  0  0  0  0  0  0  0
    8.3015    9.0055   -3.4318 H   0  0  0  0  0  0  0  0  0  0  0  0
    9.8421   10.5178   -2.3509 H   0  0  0  0  0  0  0  0  0  0  0  0
   13.0510    7.5616   -3.2854 H   0  0  0  0  0  0  0  0  0  0  0  0
   12.0634   10.4327   -0.6431 H   0  0  0  0  0  0  0  0  0  0  0  0
    6.6799    9.9561   -0.0139 H   0  0  0  0  0  0  0  0  0  0  0  0
   14.8107    3.0650   -2.4882 H   0  0  0  0  0  0  0  0  0  0  0  0
    0.3952    4.6024   -3.7874 H   0  0  0  0  0  0  0  0  0  0  0  0
    1.2938    6.6669   -2.9012 H   0  0  0  0  0  0  0  0  0  0  0  0
    0.0000    5.1994   -1.4787 H   0  0  0  0  0  0  0  0  0  0  0  0
    1.3797    2.2548   -0.4522 H   0  0  0  0  0  0  0  0  0  0  0  0
    3.6041    1.6707   -1.1937 H   0  0  0  0  0  0  0  0  0  0  0  0
    1.7582    1.6336   -2.7575 H   0  0  0  0  0  0  0  0  0  0  0  0
   13.6673    0.0000   -2.7766 H   0  0  0  0  0  0  0  0  0  0  0  0
   13.1706    1.2779   -4.7744 H   0  0  0  0  0  0  0  0  0  0  0  0
   11.4181    0.8035   -3.1656 H   0  0  0  0  0  0  0  0  0  0  0  0
   13.7558    1.5918    0.2281 H   0  0  0  0  0  0  0  0  0  0  0  0
   11.4862    2.3317   -0.1458 H   0  0  0  0  0  0  0  0  0  0  0  0
   13.2231    3.9495    0.3369 H   0  0  0  0  0  0  0  0  0  0  0  0
   13.4136   13.4106    2.4910 H   0  0  0  0  0  0  0  0  0  0  0  0
   14.2657   12.2929    0.5218 H   0  0  0  0  0  0  0  0  0  0  0  0
   15.0840   11.6775    2.7148 H   0  0  0  0  0  0  0  0  0  0  0  0
   12.0439   11.4775    4.8800 H   0  0  0  0  0  0  0  0  0  0  0  0
   12.9794    9.2767    4.5257 H   0  0  0  0  0  0  0  0  0  0  0  0
   10.6301    9.6724    4.1125 H   0  0  0  0  0  0  0  0  0  0  0  0
    3.7015   12.7997   -1.9707 H   0  0  0  0  0  0  0  0  0  0  0  0
    5.2310   14.3151   -0.8713 H   0  0  0  0  0  0  0  0  0  0  0  0
    4.5853   12.2493    0.2135 H   0  0  0  0  0  0  0  0  0  0  0  0
    5.8791   13.2977   -4.4618 H   0  0  0  0  0  0  0  0  0  0  0  0
    7.8363   11.8787   -4.5063 H   0  0  0  0  0  0  0  0  0  0  0  0
    7.9078   14.0024   -3.3514 H   0  0  0  0  0  0  0  0  0  0  0  0
  1  2  1  1  0  0  0
  1  3  1  0  0  0  0
  1  4  1  0  0  0  0
  1 30  1  6  0  0  0
  2  5  1  0  0  0  0
  2  6  2  0  0  0  0
  3  7  1  0  0  0  0
  3  8  2  0  0  0  0
  4  9  1  0  0  0  0
  4 31  1  1  0  0  0
  4 32  1  6  0  0  0
  5 10  1  6  0  0  0
  5 11  1  1  0  0  0
  5 12  1  6  0  0  0
  7 10  2  0  0  0  0
  7 13  1  0  0  0  0
  9 14  2  0  0  0  0
  9 33  1  0  0  0  0
 10 15  1  0  0  0  0
 11 16  1  0  0  0  0
 11 34  1  1  0  0  0
 11 35  1  1  0  0  0
 12 17  1  0  0  0  0
 12 36  1  6  0  0  0
 12 37  1  0  0  0  0
 13 18  1  0  0  0  0
 13 19  2  0  0  0  0
 14 20  1  0  0  0  0
 14 21  1  0  0  0  0
 15 38  1  6  0  0  0
 16 22  2  0  0  0  0
 16 39  1  6  0  0  0
 17 23  2  0  0  0  0
 17 40  1  1  0  0  0
 18 24  1  6  0  0  0
 18 25  1  1  0  0  0
 18 41  1  0  0  0  0
 20 42  1  6  0  0  0
 20 43  1  0  0  0  0
 20 44  1  1  0  0  0
 21 45  1  1  0  0  0
 21 46  1  0  0  0  0
 21 47  1  6  0  0  0
 22 26  1  0  0  0  0
 22 27  1  1  0  0  0
 23 28  1  0  0  0  0
 23 29  1  6  0  0  0
 24 48  1  0  0  0  0
 24 49  1  6  0  0  0
 24 50  1  0  0  0  0
 25 51  1  0  0  0  0
 25 52  1  0  0  0  0
 25 53  1  1  0  0  0
 26 54  1  0  0  0  0
 26 55  1  6  0  0  0
 26 56  1  1  0  0  0
 27 57  1  1  0  0  0
 27 58  1  0  0  0  0
 27 59  1  0  0  0  0
 28 60  1  6  0  0  0
 28 61  1  0  0  0  0
 28 62  1  1  0  0  0
 29 63  1  6  0  0  0
 29 64  1  6  0  0  0
 29 65  1  0  0  0  0
M  END
>  <Formula> (169)
C25H36O4

>  <Name> (169)
5-HYDROXY-4-ISOBUTYRYL-2,6,6-TRIS-(3-METHYL-2-BUTENYL)-4-CYCLOHEXENE-1,3-DIONE

>  <CAS-Nr> (169)
468-27-9

>  <EINECS> (169)
---

>  <Compound classification> (169)
Terpene related

>  <Microorganism> (169)
Saccharomyces cerevisiae

>  <Microorganism classification> (169)
yeast

>  <ADT evaluation> (169)
1

>  <Method abbreviation> (169)
ADT

>  <Ref-Nr> (169)
6313

>  <Marker> (169)
0

>  <Method> (169)
Serial dilution test; Inoculum size: adjusted; Medium: glucose-salt broth; pH: ---; Incubation-temperature: 37 degrees Centigrade; Incubation-time: 12h; Solubility enhancer: ethanol Agar diffusion test; Inoculum size: adjusted; Medium: Antibiotic and Sulfonamide Sensitivity-Test agar; Incubation-temperature: 37 degrees Centigrade; Incubation-time: cited; Compound dose: 10 and 100 microgram/disks soluted in ethenol

>  <Reference> (169)
Schmalreck, A.F., Teuber, M., Reininger, W., Hartl, A.: Structural Features Determining the Antibiotic Potencies of Natural and Synthetic Hop Bitter Resins, Their Precursors and Derivatives; Canadian Journal of Microbiology 21, 205-12 (1975)

>  <mol_id> (169)
1146

>  <MolWeight> (169)
400.55

>  <Nickname> (169)
Colupulone

$$$$

csChmFindW11180110282D

 52 51  0  0  0  0  0  0  0  0999 V2000
   17.3424   12.4128    1.5364 C   0  0  0  0  0  0  0  0  0  0  0  0
   19.1245   11.1772    1.7763 C   0  0  0  0  0  0  0  0  0  0  0  0
   15.5340   11.2318    1.8363 C   0  0  0  0  0  0  0  0  0  0  0  0
   20.9139   12.3684    1.6590 C   0  0  0  0  0  0  0  0  0  0  0  0
   13.7486   12.4479    1.5349 C   0  0  0  0  0  0  0  0  0  0  0  0
   21.2363   14.0011    2.2850 O   0  0  0  0  0  0  0  0  0  0  0  0
   22.4019   11.4747    0.7359 O   0  0  0  0  0  0  0  0  0  0  0  0
   11.9337   11.2813    1.8526 C   0  0  0  0  0  0  0  0  0  0  0  0
   10.1511   12.4917    1.5158 C   0  0  0  0  0  0  0  0  0  0  0  0
    8.3341   11.3327    1.8595 C   0  0  0  0  0  0  0  0  0  0  0  0
    6.5679   12.4788    1.5063 C   0  0  0  0  0  0  0  0  0  0  0  0
    4.7935   11.8940    1.9780 C   0  0  0  0  0  0  0  0  0  0  0  0
    4.3778   10.0343    2.9436 C   0  0  0  0  0  0  0  0  0  0  0  0
    2.2978    9.5515    3.0057 C   0  0  0  0  0  0  0  0  0  0  0  0
    1.5600    8.1446    4.0964 C   0  0  0  0  0  0  0  0  0  0  0  0
    2.7212    6.9121    5.3964 C   0  0  0  0  0  0  0  0  0  0  0  0
    1.5561    5.2698    6.2381 C   0  0  0  0  0  0  0  0  0  0  0  0
    2.7747    4.0370    7.5613 C   0  0  0  0  0  0  0  0  0  0  0  0
    1.6077    2.4108    8.4280 C   0  0  0  0  0  0  0  0  0  0  0  0
    2.8109    1.1876    9.7583 C   0  0  0  0  0  0  0  0  0  0  0  0
   17.3303   13.0637    0.0571 H   0  0  0  0  0  0  0  0  0  0  0  0
   17.3882   13.6350    2.5949 H   0  0  0  0  0  0  0  0  0  0  0  0
   19.1701   10.0189    0.6495 H   0  0  0  0  0  0  0  0  0  0  0  0
   19.1172   10.4572    3.2262 H   0  0  0  0  0  0  0  0  0  0  0  0
   15.5265   10.6185    3.3320 H   0  0  0  0  0  0  0  0  0  0  0  0
   15.5206    9.9846    0.8081 H   0  0  0  0  0  0  0  0  0  0  0  0
   13.7508   13.0511    0.0352 H   0  0  0  0  0  0  0  0  0  0  0  0
   13.7707   13.7034    2.5531 H   0  0  0  0  0  0  0  0  0  0  0  0
   23.5232   12.3117    0.7284 H   0  0  0  0  0  0  0  0  0  0  0  0
   11.9195   10.7012    3.3614 H   0  0  0  0  0  0  0  0  0  0  0  0
   11.9228   10.0108    0.8532 H   0  0  0  0  0  0  0  0  0  0  0  0
   10.1580   13.0559    0.0010 H   0  0  0  0  0  0  0  0  0  0  0  0
   10.1700   13.7721    2.5020 H   0  0  0  0  0  0  0  0  0  0  0  0
    8.3283   10.7754    3.3811 H   0  0  0  0  0  0  0  0  0  0  0  0
    8.3281   10.0343    0.8888 H   0  0  0  0  0  0  0  0  0  0  0  0
    6.7843   13.8864    0.8026 H   0  0  0  0  0  0  0  0  0  0  0  0
    3.5389   12.8166    1.6664 H   0  0  0  0  0  0  0  0  0  0  0  0
    4.9710   10.0816    4.4563 H   0  0  0  0  0  0  0  0  0  0  0  0
    5.1730    8.8378    2.1831 H   0  0  0  0  0  0  0  0  0  0  0  0
    1.3500   10.4196    2.0728 H   0  0  0  0  0  0  0  0  0  0  0  0
    0.0000    7.8474    4.0688 H   0  0  0  0  0  0  0  0  0  0  0  0
    3.3196    7.8208    6.5986 H   0  0  0  0  0  0  0  0  0  0  0  0
    3.9928    6.3149    4.5887 H   0  0  0  0  0  0  0  0  0  0  0  0
    0.9608    4.3589    5.0431 H   0  0  0  0  0  0  0  0  0  0  0  0
    0.2964    5.8637    7.0585 H   0  0  0  0  0  0  0  0  0  0  0  0
    3.3875    4.9527    8.7441 H   0  0  0  0  0  0  0  0  0  0  0  0
    4.0237    3.4262    6.7366 H   0  0  0  0  0  0  0  0  0  0  0  0
    1.0029    1.4917    7.2433 H   0  0  0  0  0  0  0  0  0  0  0  0
    0.3521    3.0237    9.2414 H   0  0  0  0  0  0  0  0  0  0  0  0
    1.9229    0.0000   10.3822 H   0  0  0  0  0  0  0  0  0  0  0  0
    3.3984    2.0719   10.9675 H   0  0  0  0  0  0  0  0  0  0  0  0
    4.0488    0.5336    8.9647 H   0  0  0  0  0  0  0  0  0  0  0  0
  1  2  1  0  0  0  0
  1  3  1  0  0  0  0
  1 21  1  6  0  0  0
  1 22  1  1  0  0  0
  2  4  1  0  0  0  0
  2 23  1  6  0  0  0
  2 24  1  1  0  0  0
  3  5  1  0  0  0  0
  3 25  1  1  0  0  0
  3 26  1  6  0  0  0
  4  6  2  0  0  0  0
  4  7  1  6  0  0  0
  5  8  1  0  0  0  0
  5 27  1  6  0  0  0
  5 28  1  1  0  0  0
  7 29  1  0  0  0  0
  8  9  1  0  0  0  0
  8 30  1  1  0  0  0
  8 31  1  6  0  0  0
  9 10  1  0  0  0  0
  9 32  1  6  0  0  0
  9 33  1  1  0  0  0
 10 11  1  0  0  0  0
 10 34  1  1  0  0  0
 10 35  1  6  0  0  0
 11 12  2  0  0  0  0
 11 36  1  0  0  0  0
 12 13  1  1  0  0  0
 12 37  1  0  0  0  0
 13 14  1  0  0  0  0
 13 38  1  1  0  0  0
 13 39  1  6  0  0  0
 14 15  2  0  0  0  0
 14 40  1  6  0  0  0
 15 16  1  1  0  0  0
 15 41  1  0  0  0  0
 16 17  1  0  0  0  0
 16 42  1  1  0  0  0
 16 43  1  6  0  0  0
 17 18  1  1  0  0  0
 17 44  1  6  0  0  0
 17 45  1  1  0  0  0
 18 19  1  0  0  0  0
 18 46  1  1  0  0  0
 18 47  1  6  0  0  0
 19 20  1  1  0  0  0
 19 48  1  6  0  0  0
 19 49  1  1  0  0  0
 20 50  1  0  0  0  0
 20 51  1  1  0  0  0
 20 52  1  6  0  0  0
M  END
>  <Formula> (170)
C18H32O2

>  <Name> (170)
(Z,Z)-9,12-OCTADECADIENOIC ACID

>  <CAS-Nr> (170)
60-33-3

>  <EINECS> (170)
207-334-8

>  <21 CFR> (170)
182.5065, 184.1065

>  <Compound classification> (170)
Ali-COOH

>  <Microorganism> (170)
Pyricularia oryzae

>  <Microorganism classification> (170)
fungi

>  <MIC> (170)
200

>  <Annotation> (170)
MIC=ED50

>  <Method abbreviation> (170)
SDT

>  <Ref-Nr> (170)
6355

>  <Marker> (170)
0

>  <Method> (170)
Serial dilution test; Inoculum size: ---; Medium: ---; pH: ---; Incubation-temperature: -- degrees Centigrade; Incubation-time: ---; Solubility enhancer: ---

>  <Reference> (170)
Mori, A., Enoki, N., Shinozuka, K., Nishino, C., Fukushima, M.: Antifungal Activity of Fatty Acids against Pyricularia oryzae Related to Antifungal Constituents of Miscanthus sinensis; Agricultural and Biological Chemistry 51, 3403-5 (1987)

>  <mol_id> (170)
981

>  <LD50-mouse-oral> (170)
>50000

>  <LD50-mou-ip> (170)
280

>  <MolWeight> (170)
280.44

>  <Nickname> (170)
Linoleic acid

$$$$

csChmFindW11180110282D

 42 42  0  0  0  0  0  0  0  0999 V2000
    8.5061   11.9623   -2.1145 C   0  0  0  0  0  0  0  0  0  0  0  0
    8.5312   10.0233   -1.6302 C   0  0  0  0  0  0  0  0  0  0  0  0
    7.1584   13.0924   -1.6893 C   0  0  0  0  0  0  0  0  0  0  0  0
    6.6826    9.3318   -1.0538 C   0  0  0  0  0  0  0  0  0  0  0  0
    5.5219   12.4737   -0.6996 C   0  0  0  0  0  0  0  0  0  0  0  0
    7.1804   15.0282   -2.1860 C   0  0  0  0  0  0  0  0  0  0  0  0
    5.8061   10.6721    0.2284 C   0  0  0  0  0  0  0  0  0  0  0  0
    6.8029    7.4195   -0.2330 C   0  0  0  0  0  0  0  0  0  0  0  0
    4.9492    6.5026   -0.3726 C   0  0  0  0  0  0  0  0  0  0  0  0
    7.4727    7.4510    1.7099 C   0  0  0  0  0  0  0  0  0  0  0  0
    8.0715    6.4743   -1.3394 O   0  0  0  0  0  0  0  0  0  0  0  0
    4.8440    4.7039    0.5901 C   0  0  0  0  0  0  0  0  0  0  0  0
    3.0889    3.7964    0.2833 C   0  0  0  0  0  0  0  0  0  0  0  0
    2.6080    2.2551    1.1052 C   0  0  0  0  0  0  0  0  0  0  0  0
    0.8415    1.3831    0.7597 C   0  0  0  0  0  0  0  0  0  0  0  0
    3.8034    1.3257    2.4120 C   0  0  0  0  0  0  0  0  0  0  0  0
    9.7027   12.4434   -2.8537 H   0  0  0  0  0  0  0  0  0  0  0  0
    9.5306    9.8092   -0.5099 H   0  0  0  0  0  0  0  0  0  0  0  0
    9.0147    9.2033   -2.8102 H   0  0  0  0  0  0  0  0  0  0  0  0
    5.8192    9.2266   -2.3010 H   0  0  0  0  0  0  0  0  0  0  0  0
    4.3742   12.3654   -1.6851 H   0  0  0  0  0  0  0  0  0  0  0  0
    5.1289   13.5102    0.3327 H   0  0  0  0  0  0  0  0  0  0  0  0
    5.9236   15.3861   -2.9410 H   0  0  0  0  0  0  0  0  0  0  0  0
    8.3685   15.3651   -3.0505 H   0  0  0  0  0  0  0  0  0  0  0  0
    7.2402   15.8816   -0.9423 H   0  0  0  0  0  0  0  0  0  0  0  0
    6.6916   10.8682    1.4400 H   0  0  0  0  0  0  0  0  0  0  0  0
    4.4763   10.1435    0.7153 H   0  0  0  0  0  0  0  0  0  0  0  0
    4.6388    6.3026   -1.8413 H   0  0  0  0  0  0  0  0  0  0  0  0
    3.9011    7.4308    0.1979 H   0  0  0  0  0  0  0  0  0  0  0  0
    7.8542    6.0618    2.1523 H   0  0  0  0  0  0  0  0  0  0  0  0
    6.3952    7.9723    2.6223 H   0  0  0  0  0  0  0  0  0  0  0  0
    8.6877    8.3324    1.8293 H   0  0  0  0  0  0  0  0  0  0  0  0
    8.1419    5.2596   -0.8804 H   0  0  0  0  0  0  0  0  0  0  0  0
    5.0506    4.9048    2.0807 H   0  0  0  0  0  0  0  0  0  0  0  0
    5.9617    3.7941    0.1132 H   0  0  0  0  0  0  0  0  0  0  0  0
    2.1693    4.4577   -0.6797 H   0  0  0  0  0  0  0  0  0  0  0  0
    1.0505    0.0085    0.1717 H   0  0  0  0  0  0  0  0  0  0  0  0
    0.0000    2.1874   -0.1980 H   0  0  0  0  0  0  0  0  0  0  0  0
    0.0785    1.2299    2.0529 H   0  0  0  0  0  0  0  0  0  0  0  0
    3.2263    0.0000    2.8375 H   0  0  0  0  0  0  0  0  0  0  0  0
    3.9941    2.1798    3.6430 H   0  0  0  0  0  0  0  0  0  0  0  0
    5.1631    1.0814    1.8024 H   0  0  0  0  0  0  0  0  0  0  0  0
  1  2  1  0  0  0  0
  1  3  2  0  0  0  0
  1 17  1  6  0  0  0
  2  4  1  0  0  0  0
  2 18  1  1  0  0  0
  2 19  1  6  0  0  0
  3  5  1  1  0  0  0
  3  6  1  0  0  0  0
  4  7  1  1  0  0  0
  4  8  1  0  0  0  0
  4 20  1  6  0  0  0
  5  7  1  1  0  0  0
  5 21  1  6  0  0  0
  5 22  1  1  0  0  0
  6 23  1  6  0  0  0
  6 24  1  6  0  0  0
  6 25  1  1  0  0  0
  7 26  1  1  0  0  0
  7 27  1  0  0  0  0
  8  9  1  0  0  0  0
  8 10  1  1  0  0  0
  8 11  1  6  0  0  0
  9 12  1  1  0  0  0
  9 28  1  6  0  0  0
  9 29  1  0  0  0  0
 10 30  1  0  0  0  0
 10 31  1  1  0  0  0
 10 32  1  0  0  0  0
 11 33  1  0  0  0  0
 12 13  1  0  0  0  0
 12 34  1  1  0  0  0
 12 35  1  0  0  0  0
 13 14  2  0  0  0  0
 13 36  1  6  0  0  0
 14 15  1  0  0  0  0
 14 16  1  1  0  0  0
 15 37  1  0  0  0  0
 15 38  1  6  0  0  0
 15 39  1  1  0  0  0
 16 40  1  0  0  0  0
 16 41  1  1  0  0  0
 16 42  1  0  0  0  0
M  END
>  <Formula> (171)
C15H26O

>  <Name> (171)
(R*,R*)-ALPHA,4-DIMETHYL-ALPHA-(4-METHYL-3-PENTENYL)-3-CYCLOHEXENE-1-METHANOL

>  <CAS-Nr> (171)
515-69-5

>  <EINECS> (171)
208-205-9

>  <LD50-rat-oral> (171)
14850

>  <Compound classification> (171)
Sesquiterpene

>  <Microorganism> (171)
Actinomyces viscosus

>  <Microorganism type> (171)
T14V

>  <Microorganism classification> (171)
Bac+

>  <MMC> (171)
800

>  <Annotation> (171)
at pH=3.20 adjusted with phosphate buffer

>  <Method abbreviation> (171)
SDT

>  <Ref-Nr> (171)
6371

>  <Marker> (171)
0

>  <Method> (171)
Serial dilution test; Inoculum size: 10E6-10E7 cfu/ml; Medium: dentrifice or rinse solution; pH=3,4,5,6 adjusted; Incubation-temperature: room temperature; Incubation-time: 60 seconds; Solubility enhancer: ---; A three log reduction of cell count is considered as significant ('SIKT-Test = short interval killing test')

>  <Reference> (171)
Robinson, R.S., Buzin, A.B., Kirkup, R.E.: Antiplaque Compositions; EP 0,420,630 (1991)

>  <mol_id> (171)
180

>  <LD50-mouse-oral> (171)
11350

>  <MolWeight> (171)
222.36

>  <Nickname> (171)
alpha-Bisabolol

>  <other Names> (171)
Dragosantol, (-)-alpha-Bisabolol

$$$$

csChmFindW11180110282D

 16 15  0  0  0  0  0  0  0  0999 V2000
    6.1027    3.0562    0.0279 C   0  0  0  0  0  0  0  0  0  0  0  0
    4.5092    2.1912    0.0271 C   0  0  0  0  0  0  0  0  0  0  0  0
    7.5772    2.2467    0.0190 C   0  0  0  0  0  0  0  0  0  0  0  0
    3.0341    3.0022    0.0360 C   0  0  0  0  0  0  0  0  0  0  0  0
    9.2077    3.1183    0.0168 C   0  0  0  0  0  0  0  0  0  0  0  0
    1.4142    2.1499    0.0353 C   0  0  0  0  0  0  0  0  0  0  0  0
    0.0000    2.7838    0.0460 O   0  0  0  0  0  0  0  0  0  0  0  0
    1.4690    0.4367    0.0213 O   0  0  0  0  0  0  0  0  0  0  0  0
    6.0552    4.4386    0.0365 H   0  0  0  0  0  0  0  0  0  0  0  0
    4.5470    0.8050    0.0185 H   0  0  0  0  0  0  0  0  0  0  0  0
    7.6265    0.8648    0.0105 H   0  0  0  0  0  0  0  0  0  0  0  0
    2.9370    4.3803    0.0447 H   0  0  0  0  0  0  0  0  0  0  0  0
   10.2671    2.2031    0.0397 H   0  0  0  0  0  0  0  0  0  0  0  0
    9.3236    3.9541    1.1372 H   0  0  0  0  0  0  0  0  0  0  0  0
    9.3389    3.9139   -1.1311 H   0  0  0  0  0  0  0  0  0  0  0  0
    0.3331    0.0000    0.0221 H   0  0  0  0  0  0  0  0  0  0  0  0
  1  2  1  0  0  0  0
  1  3  2  0  0  0  0
  1  9  1  0  0  0  0
  2  4  2  0  0  0  0
  2 10  1  0  0  0  0
  3  5  1  0  0  0  0
  3 11  1  0  0  0  0
  4  6  1  0  0  0  0
  4 12  1  0  0  0  0
  5 13  1  0  0  0  0
  5 14  1  1  0  0  0
  5 15  1  6  0  0  0
  6  7  2  0  0  0  0
  6  8  1  0  0  0  0
  8 16  1  0  0  0  0
M  END
>  <Formula> (172)
C6H8O2

>  <Name> (172)
(E,E)-2,4-HEXADIENOIC ACID

>  <CAS-Nr> (172)
110-44-1

>  <EINECS> (172)
203-768-7

>  <21 CFR> (172)
133.118, 150.161, 182.3089, 150.141, 166.110, 177.2260, 133.123, 133.124, 133.169, 133.173, 133.179, 133.187, 133.188, 172.872, 181.23

>  <LD50-rat-oral> (172)
7360

>  <Compound classification> (172)
Ali-COOH

>  <Microorganism> (172)
Aspergillus flavus

>  <Microorganism type> (172)
NRRL A16100

>  <Microorganism classification> (172)
fungi

>  <MMC> (172)
1500

>  <Annotation> (172)
K-salt, no growth after 70d

>  <Method abbreviation> (172)
SDT

>  <Ref-Nr> (172)
6375

>  <Marker> (172)
0

>  <Method> (172)
Serial dilution test; Inoculum size: 10E6 spores/0.1 ml; Medium: yeast extract sucrose broth; pH: 5.0; Incubation-temperature: 12 degrees Centigrade; Incubation-time: up to 70 days; Solubility enhancer: ---

>  <Reference> (172)
Bullerman, L.B.: Effects of Potassium Sorbate on Growth and Aflatoxin Production by Aspergillus parasiticus and Aspergillus flavus; Journal of Food Protection 46, 940-2 (1983)

>  <mol_id> (172)
203

>  <LD50-mouse-oral> (172)
3200

>  <LD50-mou-ip> (172)
2820

>  <MolWeight> (172)
112.12

>  <Nickname> (172)
Sorbic acid

$$$$

csChmFindW11180110282D

 24 24  0  0  0  0  0  0  0  0999 V2000
    3.1884    5.5241   -0.3866 C   0  0  0  0  0  0  0  0  0  0  0  0
    4.8749    5.4606   -0.6520 C   0  0  0  0  0  0  0  0  0  0  0  0
    2.1001    4.1429   -0.0424 C   0  0  0  0  0  0  0  0  0  0  0  0
    2.3501    7.2260   -0.4566 C   0  0  0  0  0  0  0  0  0  0  0  0
    5.9634    4.0444   -0.6568 C   0  0  0  0  0  0  0  0  0  0  0  0
    2.4578    2.4776    0.0946 C   0  0  0  0  0  0  0  0  0  0  0  0
    1.0588    7.2988   -1.8548 C   0  0  0  0  0  0  0  0  0  0  0  0
    1.5629    7.6733    1.2189 C   0  0  0  0  0  0  0  0  0  0  0  0
    5.6354    2.4022   -0.4119 C   0  0  0  0  0  0  0  0  0  0  0  0
    4.0612    1.5603   -0.0639 C   0  0  0  0  0  0  0  0  0  0  0  0
    1.0758    1.4869    0.4416 O   0  0  0  0  0  0  0  0  0  0  0  0
    4.0179    0.0000    0.1177 O   0  0  0  0  0  0  0  0  0  0  0  0
    5.5286    6.6648   -0.9036 H   0  0  0  0  0  0  0  0  0  0  0  0
    0.7574    4.4781    0.1403 H   0  0  0  0  0  0  0  0  0  0  0  0
    3.3382    8.2047   -0.7381 H   0  0  0  0  0  0  0  0  0  0  0  0
    7.2974    4.3729   -0.9065 H   0  0  0  0  0  0  0  0  0  0  0  0
    0.5343    8.5968   -1.9470 H   0  0  0  0  0  0  0  0  0  0  0  0
    0.0000    6.4116   -1.6126 H   0  0  0  0  0  0  0  0  0  0  0  0
    1.6475    6.9644   -3.0828 H   0  0  0  0  0  0  0  0  0  0  0  0
    1.0501    8.9783    1.1669 H   0  0  0  0  0  0  0  0  0  0  0  0
    2.5190    7.6074    2.2424 H   0  0  0  0  0  0  0  0  0  0  0  0
    0.5125    6.7992    1.5342 H   0  0  0  0  0  0  0  0  0  0  0  0
    6.7036    1.5088   -0.4767 H   0  0  0  0  0  0  0  0  0  0  0  0
    1.4326    0.3186    0.5155 H   0  0  0  0  0  0  0  0  0  0  0  0
  1  2  2  0  0  0  0
  1  3  1  0  0  0  0
  1  4  1  0  0  0  0
  2  5  1  0  0  0  0
  2 13  1  0  0  0  0
  3  6  2  0  0  0  0
  3 14  1  0  0  0  0
  4  7  1  6  0  0  0
  4  8  1  1  0  0  0
  4 15  1  0  0  0  0
  5  9  2  0  0  0  0
  5 16  1  0  0  0  0
  6 10  1  0  0  0  0
  6 11  1  0  0  0  0
  7 17  1  0  0  0  0
  7 18  1  0  0  0  0
  7 19  1  6  0  0  0
  8 20  1  0  0  0  0
  8 21  1  1  0  0  0
  8 22  1  0  0  0  0
  9 10  1  0  0  0  0
  9 23  1  0  0  0  0
 10 12  2  0  0  0  0
 11 24  1  0  0  0  0
M  END
>  <Formula> (173)
C10H12O2

>  <Name> (173)
2-HYDROXY-4-ISOPROPYL-2,4,6-CYCLOHEPTATRIENONE

>  <CAS-Nr> (173)
499-44-5

>  <EINECS> (173)
207-880-7

>  <LD50-rat-oral> (173)
>500

>  <Compound classification> (173)
Monoterpene

>  <Microorganism> (173)
Staphylococcus aureus

>  <Microorganism type> (173)
9462-1, methicillin resistant

>  <Microorganism classification> (173)
Bac+

>  <MMC> (173)
50

>  <Annotation> (173)
killing time: 60 min., stabilized with Al-compound

>  <Method abbreviation> (173)
SDT

>  <Ref-Nr> (173)
6376

>  <Marker> (173)
0

>  <Method> (173)
Serial dilution test; Inoculum size: 10E6 cfu/ml; Medium: not given; pH: ---; Incubation-temperature: -- degrees Centigrade; Incubation-time: 5,15,30,60,120 min.; Solubility enhancer: hinokitiol was stabilized with aluminum compound: Al-compound 30 to 400 mol/hinokitiol 100 mol

>  <Reference> (173)
Hirano, N., Kishi, N., Kita, K., Nishina, T., Saito, Y.: Antibacterial/Bactericidal/Antiseptic Agent, Dermatologic Preparation, and Detergent Composition; EP 0,835,655 (1998)

>  <mol_id> (173)
179

>  <LD50-mouse-oral> (173)
760

>  <LD50-mou-ip> (173)
85

>  <MolWeight> (173)
164.20

>  <Nickname> (173)
Hinokitiol

>  <other Names> (173)
beta-Thujaplicin, 4-Isopropyltropolone

>  <LD50-mou-iv> (173)
128

$$$$

csChmFindW11180110282D

 24 24  0  0  0  0  0  0  0  0999 V2000
    3.1884    5.5241   -0.3866 C   0  0  0  0  0  0  0  0  0  0  0  0
    4.8749    5.4606   -0.6520 C   0  0  0  0  0  0  0  0  0  0  0  0
    2.1001    4.1429   -0.0424 C   0  0  0  0  0  0  0  0  0  0  0  0
    2.3501    7.2260   -0.4566 C   0  0  0  0  0  0  0  0  0  0  0  0
    5.9634    4.0444   -0.6568 C   0  0  0  0  0  0  0  0  0  0  0  0
    2.4578    2.4776    0.0946 C   0  0  0  0  0  0  0  0  0  0  0  0
    1.0588    7.2988   -1.8548 C   0  0  0  0  0  0  0  0  0  0  0  0
    1.5629    7.6733    1.2189 C   0  0  0  0  0  0  0  0  0  0  0  0
    5.6354    2.4022   -0.4119 C   0  0  0  0  0  0  0  0  0  0  0  0
    4.0612    1.5603   -0.0639 C   0  0  0  0  0  0  0  0  0  0  0  0
    1.0758    1.4869    0.4416 O   0  0  0  0  0  0  0  0  0  0  0  0
    4.0179    0.0000    0.1177 O   0  0  0  0  0  0  0  0  0  0  0  0
    5.5286    6.6648   -0.9036 H   0  0  0  0  0  0  0  0  0  0  0  0
    0.7574    4.4781    0.1403 H   0  0  0  0  0  0  0  0  0  0  0  0
    3.3382    8.2047   -0.7381 H   0  0  0  0  0  0  0  0  0  0  0  0
    7.2974    4.3729   -0.9065 H   0  0  0  0  0  0  0  0  0  0  0  0
    0.5343    8.5968   -1.9470 H   0  0  0  0  0  0  0  0  0  0  0  0
    0.0000    6.4116   -1.6126 H   0  0  0  0  0  0  0  0  0  0  0  0
    1.6475    6.9644   -3.0828 H   0  0  0  0  0  0  0  0  0  0  0  0
    1.0501    8.9783    1.1669 H   0  0  0  0  0  0  0  0  0  0  0  0
    2.5190    7.6074    2.2424 H   0  0  0  0  0  0  0  0  0  0  0  0
    0.5125    6.7992    1.5342 H   0  0  0  0  0  0  0  0  0  0  0  0
    6.7036    1.5088   -0.4767 H   0  0  0  0  0  0  0  0  0  0  0  0
    1.4326    0.3186    0.5155 H   0  0  0  0  0  0  0  0  0  0  0  0
  1  2  2  0  0  0  0
  1  3  1  0  0  0  0
  1  4  1  0  0  0  0
  2  5  1  0  0  0  0
  2 13  1  0  0  0  0
  3  6  2  0  0  0  0
  3 14  1  0  0  0  0
  4  7  1  6  0  0  0
  4  8  1  1  0  0  0
  4 15  1  0  0  0  0
  5  9  2  0  0  0  0
  5 16  1  0  0  0  0
  6 10  1  0  0  0  0
  6 11  1  0  0  0  0
  7 17  1  0  0  0  0
  7 18  1  0  0  0  0
  7 19  1  6  0  0  0
  8 20  1  0  0  0  0
  8 21  1  1  0  0  0
  8 22  1  0  0  0  0
  9 10  1  0  0  0  0
  9 23  1  0  0  0  0
 10 12  2  0  0  0  0
 11 24  1  0  0  0  0
M  END
>  <Formula> (174)
C10H12O2

>  <Name> (174)
2-HYDROXY-4-ISOPROPYL-2,4,6-CYCLOHEPTATRIENONE

>  <CAS-Nr> (174)
499-44-5

>  <EINECS> (174)
207-880-7

>  <LD50-rat-oral> (174)
>500

>  <Compound classification> (174)
Monoterpene

>  <Microorganism> (174)
Eschericia coli

>  <Microorganism type> (174)
1

>  <Microorganism classification> (174)
Bac-

>  <MMC> (174)
50

>  <Annotation> (174)
killing time: 120 min., stabilized with Al-compound

>  <Method abbreviation> (174)
SDT

>  <Ref-Nr> (174)
6376

>  <Marker> (174)
0

>  <Method> (174)
Serial dilution test; Inoculum size: 10E6 cfu/ml; Medium: not given; pH: ---; Incubation-temperature: -- degrees Centigrade; Incubation-time: 5,15,30,60,120 min.; Solubility enhancer: hinokitiol was stabilized with aluminum compound: Al-compound 30 to 400 mol/hinokitiol 100 mol

>  <Reference> (174)
Hirano, N., Kishi, N., Kita, K., Nishina, T., Saito, Y.: Antibacterial/Bactericidal/Antiseptic Agent, Dermatologic Preparation, and Detergent Composition; EP 0,835,655 (1998)

>  <mol_id> (174)
179

>  <LD50-mouse-oral> (174)
760

>  <LD50-mou-ip> (174)
85

>  <MolWeight> (174)
164.20

>  <Nickname> (174)
Hinokitiol

>  <other Names> (174)
beta-Thujaplicin, 4-Isopropyltropolone

>  <LD50-mou-iv> (174)
128

$$$$

csChmFindW11180110282D

 24 24  0  0  0  0  0  0  0  0999 V2000
    3.1884    5.5241   -0.3866 C   0  0  0  0  0  0  0  0  0  0  0  0
    4.8749    5.4606   -0.6520 C   0  0  0  0  0  0  0  0  0  0  0  0
    2.1001    4.1429   -0.0424 C   0  0  0  0  0  0  0  0  0  0  0  0
    2.3501    7.2260   -0.4566 C   0  0  0  0  0  0  0  0  0  0  0  0
    5.9634    4.0444   -0.6568 C   0  0  0  0  0  0  0  0  0  0  0  0
    2.4578    2.4776    0.0946 C   0  0  0  0  0  0  0  0  0  0  0  0
    1.0588    7.2988   -1.8548 C   0  0  0  0  0  0  0  0  0  0  0  0
    1.5629    7.6733    1.2189 C   0  0  0  0  0  0  0  0  0  0  0  0
    5.6354    2.4022   -0.4119 C   0  0  0  0  0  0  0  0  0  0  0  0
    4.0612    1.5603   -0.0639 C   0  0  0  0  0  0  0  0  0  0  0  0
    1.0758    1.4869    0.4416 O   0  0  0  0  0  0  0  0  0  0  0  0
    4.0179    0.0000    0.1177 O   0  0  0  0  0  0  0  0  0  0  0  0
    5.5286    6.6648   -0.9036 H   0  0  0  0  0  0  0  0  0  0  0  0
    0.7574    4.4781    0.1403 H   0  0  0  0  0  0  0  0  0  0  0  0
    3.3382    8.2047   -0.7381 H   0  0  0  0  0  0  0  0  0  0  0  0
    7.2974    4.3729   -0.9065 H   0  0  0  0  0  0  0  0  0  0  0  0
    0.5343    8.5968   -1.9470 H   0  0  0  0  0  0  0  0  0  0  0  0
    0.0000    6.4116   -1.6126 H   0  0  0  0  0  0  0  0  0  0  0  0
    1.6475    6.9644   -3.0828 H   0  0  0  0  0  0  0  0  0  0  0  0
    1.0501    8.9783    1.1669 H   0  0  0  0  0  0  0  0  0  0  0  0
    2.5190    7.6074    2.2424 H   0  0  0  0  0  0  0  0  0  0  0  0
    0.5125    6.7992    1.5342 H   0  0  0  0  0  0  0  0  0  0  0  0
    6.7036    1.5088   -0.4767 H   0  0  0  0  0  0  0  0  0  0  0  0
    1.4326    0.3186    0.5155 H   0  0  0  0  0  0  0  0  0  0  0  0
  1  2  2  0  0  0  0
  1  3  1  0  0  0  0
  1  4  1  0  0  0  0
  2  5  1  0  0  0  0
  2 13  1  0  0  0  0
  3  6  2  0  0  0  0
  3 14  1  0  0  0  0
  4  7  1  6  0  0  0
  4  8  1  1  0  0  0
  4 15  1  0  0  0  0
  5  9  2  0  0  0  0
  5 16  1  0  0  0  0
  6 10  1  0  0  0  0
  6 11  1  0  0  0  0
  7 17  1  0  0  0  0
  7 18  1  0  0  0  0
  7 19  1  6  0  0  0
  8 20  1  0  0  0  0
  8 21  1  1  0  0  0
  8 22  1  0  0  0  0
  9 10  1  0  0  0  0
  9 23  1  0  0  0  0
 10 12  2  0  0  0  0
 11 24  1  0  0  0  0
M  END
>  <Formula> (175)
C10H12O2

>  <Name> (175)
2-HYDROXY-4-ISOPROPYL-2,4,6-CYCLOHEPTATRIENONE

>  <CAS-Nr> (175)
499-44-5

>  <EINECS> (175)
207-880-7

>  <LD50-rat-oral> (175)
>500

>  <Compound classification> (175)
Monoterpene

>  <Microorganism> (175)
Eschericia coli

>  <Microorganism type> (175)
2

>  <Microorganism classification> (175)
Bac-

>  <MMC> (175)
50

>  <Annotation> (175)
killing time: 30 min., stabilized with Al-compound

>  <Method abbreviation> (175)
SDT

>  <Ref-Nr> (175)
6376

>  <Marker> (175)
0

>  <Method> (175)
Serial dilution test; Inoculum size: 10E6 cfu/ml; Medium: not given; pH: ---; Incubation-temperature: -- degrees Centigrade; Incubation-time: 5,15,30,60,120 min.; Solubility enhancer: hinokitiol was stabilized with aluminum compound: Al-compound 30 to 400 mol/hinokitiol 100 mol

>  <Reference> (175)
Hirano, N., Kishi, N., Kita, K., Nishina, T., Saito, Y.: Antibacterial/Bactericidal/Antiseptic Agent, Dermatologic Preparation, and Detergent Composition; EP 0,835,655 (1998)

>  <mol_id> (175)
179

>  <LD50-mouse-oral> (175)
760

>  <LD50-mou-ip> (175)
85

>  <MolWeight> (175)
164.20

>  <Nickname> (175)
Hinokitiol

>  <other Names> (175)
beta-Thujaplicin, 4-Isopropyltropolone

>  <LD50-mou-iv> (175)
128

$$$$

csChmFindW11180110282D

 37 37  0  0  0  0  0  0  0  0999 V2000
   15.0606    7.2351    0.3320 C   0  0  0  0  0  0  0  0  0  0  0  0
   13.2977    7.2558    0.2638 C   0  0  0  0  0  0  0  0  0  0  0  0
   15.9482    8.7853    0.3183 C   0  0  0  0  0  0  0  0  0  0  0  0
   12.4180    8.8018    0.1814 C   0  0  0  0  0  0  0  0  0  0  0  0
   15.0791   10.3399    0.2360 C   0  0  0  0  0  0  0  0  0  0  0  0
   17.6869    8.6839    0.3893 O   0  0  0  0  0  0  0  0  0  0  0  0
   13.3143   10.3401    0.1678 C   0  0  0  0  0  0  0  0  0  0  0  0
   10.5567    8.8580    0.1074 C   0  0  0  0  0  0  0  0  0  0  0  0
    9.7923    7.2947    0.1242 O   0  0  0  0  0  0  0  0  0  0  0  0
    9.6333   10.1248    0.0336 O   0  0  0  0  0  0  0  0  0  0  0  0
    7.9661    7.2890    0.0536 C   0  0  0  0  0  0  0  0  0  0  0  0
    7.4412    5.4359    0.0942 C   0  0  0  0  0  0  0  0  0  0  0  0
    5.5272    5.2880    0.0021 C   0  0  0  0  0  0  0  0  0  0  0  0
    4.9752    3.4470    0.0445 C   0  0  0  0  0  0  0  0  0  0  0  0
    3.0607    3.2900   -0.0438 C   0  0  0  0  0  0  0  0  0  0  0  0
    2.4988    1.4396   -0.0016 C   0  0  0  0  0  0  0  0  0  0  0  0
    0.5688    1.3487   -0.0931 C   0  0  0  0  0  0  0  0  0  0  0  0
   15.7705    6.0345    0.3841 H   0  0  0  0  0  0  0  0  0  0  0  0
   12.5799    6.0538    0.2863 H   0  0  0  0  0  0  0  0  0  0  0  0
   15.7863   11.5429    0.2135 H   0  0  0  0  0  0  0  0  0  0  0  0
   18.1398    9.8280    0.3686 H   0  0  0  0  0  0  0  0  0  0  0  0
   12.6052   11.5470    0.1147 H   0  0  0  0  0  0  0  0  0  0  0  0
    7.5508    7.9337   -1.1457 H   0  0  0  0  0  0  0  0  0  0  0  0
    7.4602    8.0100    1.1720 H   0  0  0  0  0  0  0  0  0  0  0  0
    7.9242    4.8316    1.2897 H   0  0  0  0  0  0  0  0  0  0  0  0
    8.0412    4.7479   -0.9983 H   0  0  0  0  0  0  0  0  0  0  0  0
    5.0557    5.9015   -1.1946 H   0  0  0  0  0  0  0  0  0  0  0  0
    4.9391    5.9889    1.0948 H   0  0  0  0  0  0  0  0  0  0  0  0
    5.4496    2.8331    1.2396 H   0  0  0  0  0  0  0  0  0  0  0  0
    5.5622    2.7466   -1.0487 H   0  0  0  0  0  0  0  0  0  0  0  0
    2.5886    3.9069   -1.2387 H   0  0  0  0  0  0  0  0  0  0  0  0
    2.4762    3.9929    1.0497 H   0  0  0  0  0  0  0  0  0  0  0  0
    2.9408    0.8418    1.2006 H   0  0  0  0  0  0  0  0  0  0  0  0
    3.0542    0.7548   -1.1063 H   0  0  0  0  0  0  0  0  0  0  0  0
    0.1464    0.0000   -0.0630 H   0  0  0  0  0  0  0  0  0  0  0  0
    0.1128    1.9471   -1.2897 H   0  0  0  0  0  0  0  0  0  0  0  0
    0.0000    2.0337    1.0047 H   0  0  0  0  0  0  0  0  0  0  0  0
  1  2  2  0  0  0  0
  1  3  1  0  0  0  0
  1 18  1  0  0  0  0
  2  4  1  0  0  0  0
  2 19  1  0  0  0  0
  3  5  2  0  0  0  0
  3  6  1  0  0  0  0
  4  7  2  0  0  0  0
  4  8  1  0  0  0  0
  5  7  1  0  0  0  0
  5 20  1  0  0  0  0
  6 21  1  0  0  0  0
  7 22  1  0  0  0  0
  8  9  1  0  0  0  0
  8 10  2  0  0  0  0
  9 11  1  0  0  0  0
 11 12  1  0  0  0  0
 11 23  1  6  0  0  0
 11 24  1  1  0  0  0
 12 13  1  0  0  0  0
 12 25  1  1  0  0  0
 12 26  1  6  0  0  0
 13 14  1  0  0  0  0
 13 27  1  6  0  0  0
 13 28  1  1  0  0  0
 14 15  1  0  0  0  0
 14 29  1  1  0  0  0
 14 30  1  6  0  0  0
 15 16  1  0  0  0  0
 15 31  1  6  0  0  0
 15 32  1  1  0  0  0
 16 17  1  0  0  0  0
 16 33  1  1  0  0  0
 16 34  1  6  0  0  0
 17 35  1  0  0  0  0
 17 36  1  6  0  0  0
 17 37  1  1  0  0  0
M  END
>  <Formula> (176)
C14H20O3

>  <Name> (176)
4-HYDROXY-BENZOIC ACID, HEPTYL ESTER

>  <CAS-Nr> (176)
1085-12-7

>  <21 CFR> (176)
172.145, 193.285

>  <Compound classification> (176)
Ar-COOR

>  <Microorganism> (176)
Aspergillus niger

>  <Microorganism classification> (176)
fungi

>  <MIC> (176)
33

>  <Annotation> (176)
MIC=ED50

>  <Method abbreviation> (176)
SDT

>  <Ref-Nr> (176)
6380

>  <Marker> (176)
0

>  <Method> (176)
Serial dilution test; Inoculum size: ---; Medium: ---; pH: 4.6; Incubation-temperature: 31 degrees Centigrade; Incubation-time: ---; Solubility enhancer: --- , test cited: Vincent, J.S.C.I. 66 (1947)

>  <Reference> (176)
Cavill, G.W.K., Vincent, J.M.: The Esters of 4-Hydroxybenzoic Acid and Related Compounds. Part II. Relationships Between the Fungistatic, and Physical and Chemical Properties of the Esters; The Journal of the Society of Chemical Industry (London) 66, 175-82 (1947)

>  <mol_id> (176)
1269

>  <MolWeight> (176)
236.31

>  <Nickname> (176)
Heptylparaben

>  <other Names> (176)
n-Heptyl p-hydroxybenzoate

$$$$

csChmFindW11180110282D

 53 53  0  0  0  0  0  0  0  0999 V2000
    7.9006    8.9231    1.9849 C   0  0  0  0  0  0  0  0  0  0  0  0
    6.2922    7.6125    2.3576 C   0  0  0  0  0  0  0  0  0  0  0  0
    9.6167    8.2385    1.3860 C   0  0  0  0  0  0  0  0  0  0  0  0
   10.0405    6.1136    1.2243 C   0  0  0  0  0  0  0  0  0  0  0  0
    8.1982    5.0104    0.9699 C   0  0  0  0  0  0  0  0  0  0  0  0
    6.4739    5.6611    1.5582 C   0  0  0  0  0  0  0  0  0  0  0  0
    4.8454    8.1208    3.2460 O   0  0  0  0  0  0  0  0  0  0  0  0
    3.8617    4.5307   -0.5342 C   0  0  0  0  0  0  0  0  0  0  0  0
    4.6869    4.5051    1.4226 C   0  0  0  0  0  0  0  0  0  0  0  0
    2.2398    5.4294   -1.0304 C   0  0  0  0  0  0  0  0  0  0  0  0
    1.5051    5.3554   -3.0210 C   0  0  0  0  0  0  0  0  0  0  0  0
    1.0617    6.5467    0.3357 C   0  0  0  0  0  0  0  0  0  0  0  0
   11.7882    3.5009    3.0080 C   0  0  0  0  0  0  0  0  0  0  0  0
   11.0915    5.4979    3.0638 C   0  0  0  0  0  0  0  0  0  0  0  0
   13.1747    2.8370    4.1601 C   0  0  0  0  0  0  0  0  0  0  0  0
   14.1660    4.0650    5.5774 C   0  0  0  0  0  0  0  0  0  0  0  0
   13.8081    0.8142    4.0834 C   0  0  0  0  0  0  0  0  0  0  0  0
    8.5974   11.9472    3.3723 O   0  0  0  0  0  0  0  0  0  0  0  0
    7.5770   10.9991    2.2898 C   0  0  0  0  0  0  0  0  0  0  0  0
    5.9266   11.8684    1.1882 C   0  0  0  0  0  0  0  0  0  0  0  0
    6.6729   13.3784   -0.1743 C   0  0  0  0  0  0  0  0  0  0  0  0
    4.4878   12.7105    2.5742 C   0  0  0  0  0  0  0  0  0  0  0  0
    8.5239    3.2789    0.1098 O   0  0  0  0  0  0  0  0  0  0  0  0
   11.2478    5.9077   -0.3999 O   0  0  0  0  0  0  0  0  0  0  0  0
   11.0637    9.4752    0.9669 O   0  0  0  0  0  0  0  0  0  0  0  0
    4.6896    3.7376   -1.6177 H   0  0  0  0  0  0  0  0  0  0  0  0
    3.6253    5.0679    2.4965 H   0  0  0  0  0  0  0  0  0  0  0  0
    4.9976    2.9801    1.8398 H   0  0  0  0  0  0  0  0  0  0  0  0
    0.0051    4.7985   -3.0299 H   0  0  0  0  0  0  0  0  0  0  0  0
    2.4004    4.4148   -3.9524 H   0  0  0  0  0  0  0  0  0  0  0  0
    1.4947    6.8267   -3.6512 H   0  0  0  0  0  0  0  0  0  0  0  0
    0.0000    7.4593   -0.4355 H   0  0  0  0  0  0  0  0  0  0  0  0
    1.9821    7.4969    1.2412 H   0  0  0  0  0  0  0  0  0  0  0  0
    0.2605    5.5581    1.3069 H   0  0  0  0  0  0  0  0  0  0  0  0
   11.0716    2.5426    1.9787 H   0  0  0  0  0  0  0  0  0  0  0  0
   10.0919    5.6868    4.3092 H   0  0  0  0  0  0  0  0  0  0  0  0
   12.3259    6.5099    3.2742 H   0  0  0  0  0  0  0  0  0  0  0  0
   13.1058    4.8861    6.4513 H   0  0  0  0  0  0  0  0  0  0  0  0
   15.1121    5.1180    4.8286 H   0  0  0  0  0  0  0  0  0  0  0  0
   15.0694    3.1938    6.5669 H   0  0  0  0  0  0  0  0  0  0  0  0
   13.5127    0.0972    5.4837 H   0  0  0  0  0  0  0  0  0  0  0  0
   15.3835    0.7446    3.8101 H   0  0  0  0  0  0  0  0  0  0  0  0
   13.0572    0.0000    2.9313 H   0  0  0  0  0  0  0  0  0  0  0  0
    5.2012   10.7061    0.3404 H   0  0  0  0  0  0  0  0  0  0  0  0
    5.4550   14.0591   -0.9509 H   0  0  0  0  0  0  0  0  0  0  0  0
    7.6628   12.7285   -1.2449 H   0  0  0  0  0  0  0  0  0  0  0  0
    7.4647   14.5079    0.6323 H   0  0  0  0  0  0  0  0  0  0  0  0
    3.2925   13.3967    1.7689 H   0  0  0  0  0  0  0  0  0  0  0  0
    5.1868   13.8098    3.4983 H   0  0  0  0  0  0  0  0  0  0  0  0
    3.8904   11.5560    3.5053 H   0  0  0  0  0  0  0  0  0  0  0  0
    7.3047    2.6577   -0.1253 H   0  0  0  0  0  0  0  0  0  0  0  0
   11.5473    4.5613   -0.5165 H   0  0  0  0  0  0  0  0  0  0  0  0
   12.1179    8.7619    0.4031 H   0  0  0  0  0  0  0  0  0  0  0  0
  1  2  1  0  0  0  0
  1  3  2  0  0  0  0
  1 19  1  0  0  0  0
  2  6  1  0  0  0  0
  2  7  2  0  0  0  0
  3  4  1  0  0  0  0
  3 25  1  0  0  0  0
  4  5  1  0  0  0  0
  4 14  1  1  0  0  0
  4 24  1  6  0  0  0
  5  6  2  0  0  0  0
  5 23  1  0  0  0  0
  6  9  1  0  0  0  0
  8  9  1  1  0  0  0
  8 10  2  0  0  0  0
  8 26  1  6  0  0  0
  9 27  1  1  0  0  0
  9 28  1  0  0  0  0
 10 11  1  6  0  0  0
 10 12  1  1  0  0  0
 11 29  1  0  0  0  0
 11 30  1  6  0  0  0
 11 31  1  0  0  0  0
 12 32  1  6  0  0  0
 12 33  1  1  0  0  0
 12 34  1  1  0  0  0
 13 14  1  0  0  0  0
 13 15  2  0  0  0  0
 13 35  1  6  0  0  0
 14 36  1  1  0  0  0
 14 37  1  0  0  0  0
 15 16  1  1  0  0  0
 15 17  1  0  0  0  0
 16 38  1  1  0  0  0
 16 39  1  6  0  0  0
 16 40  1  1  0  0  0
 17 41  1  1  0  0  0
 17 42  1  0  0  0  0
 17 43  1  6  0  0  0
 18 19  2  0  0  0  0
 19 20  1  6  0  0  0
 20 21  1  6  0  0  0
 20 22  1  1  0  0  0
 20 44  1  6  0  0  0
 21 45  1  6  0  0  0
 21 46  1  6  0  0  0
 21 47  1  1  0  0  0
 22 48  1  6  0  0  0
 22 49  1  1  0  0  0
 22 50  1  1  0  0  0
 23 51  1  0  0  0  0
 24 52  1  0  0  0  0
 25 53  1  0  0  0  0
M  END
>  <Formula> (177)
C20H28O5

>  <Name> (177)
3,4,5-TRIHYDROXY-2-ISOBUTYRYL-4,6-BIS(3-METHYL-2-BUTENYL)- 2,5-CYCLOHEXADIEN-1-ONE

>  <CAS-Nr> (177)
511-25-1

>  <EINECS> (177)
---

>  <Compound classification> (177)
Terpene related

>  <Microorganism> (177)
Lactobacillus pastorianus

>  <Microorganism type> (177)
Nos. 8632

>  <Microorganism classification> (177)
Bac+

>  <MIC> (177)
5

>  <Annotation> (177)
MIC: MIC-range: >1-<10 ppm

>  <Method abbreviation> (177)
SDT

>  <Ref-Nr> (177)
6392

>  <Marker> (177)
0

>  <Method> (177)
Serial dilution test; Inoculum size: 10E4 cells/ml; Medium: nutrient broth + malt + yeast extract + peptone broth; pH: 5.3 (it did not fall below 4.5 during incubation); Incubation-temperature: 30 degrees Centigrade; Incubation-time: 24-48h; Solubility enhancer: ethanol

>  <Reference> (177)
Hough, J.S., Howard, G.A., Slater, C.A.: Bacteriostatic Activities of Hop Resin Materials; Journal of the Institute of Brewing 63, 331-3 (1957)

>  <mol_id> (177)
2600

>  <MolWeight> (177)
348.43

>  <Nickname> (177)
Cohumulone

$$$$

csChmFindW11180110282D

 53 53  0  0  0  0  0  0  0  0999 V2000
    7.9006    8.9231    1.9849 C   0  0  0  0  0  0  0  0  0  0  0  0
    6.2922    7.6125    2.3576 C   0  0  0  0  0  0  0  0  0  0  0  0
    9.6167    8.2385    1.3860 C   0  0  0  0  0  0  0  0  0  0  0  0
   10.0405    6.1136    1.2243 C   0  0  0  0  0  0  0  0  0  0  0  0
    8.1982    5.0104    0.9699 C   0  0  0  0  0  0  0  0  0  0  0  0
    6.4739    5.6611    1.5582 C   0  0  0  0  0  0  0  0  0  0  0  0
    4.8454    8.1208    3.2460 O   0  0  0  0  0  0  0  0  0  0  0  0
    3.8617    4.5307   -0.5342 C   0  0  0  0  0  0  0  0  0  0  0  0
    4.6869    4.5051    1.4226 C   0  0  0  0  0  0  0  0  0  0  0  0
    2.2398    5.4294   -1.0304 C   0  0  0  0  0  0  0  0  0  0  0  0
    1.5051    5.3554   -3.0210 C   0  0  0  0  0  0  0  0  0  0  0  0
    1.0617    6.5467    0.3357 C   0  0  0  0  0  0  0  0  0  0  0  0
   11.7882    3.5009    3.0080 C   0  0  0  0  0  0  0  0  0  0  0  0
   11.0915    5.4979    3.0638 C   0  0  0  0  0  0  0  0  0  0  0  0
   13.1747    2.8370    4.1601 C   0  0  0  0  0  0  0  0  0  0  0  0
   14.1660    4.0650    5.5774 C   0  0  0  0  0  0  0  0  0  0  0  0
   13.8081    0.8142    4.0834 C   0  0  0  0  0  0  0  0  0  0  0  0
    8.5974   11.9472    3.3723 O   0  0  0  0  0  0  0  0  0  0  0  0
    7.5770   10.9991    2.2898 C   0  0  0  0  0  0  0  0  0  0  0  0
    5.9266   11.8684    1.1882 C   0  0  0  0  0  0  0  0  0  0  0  0
    6.6729   13.3784   -0.1743 C   0  0  0  0  0  0  0  0  0  0  0  0
    4.4878   12.7105    2.5742 C   0  0  0  0  0  0  0  0  0  0  0  0
    8.5239    3.2789    0.1098 O   0  0  0  0  0  0  0  0  0  0  0  0
   11.2478    5.9077   -0.3999 O   0  0  0  0  0  0  0  0  0  0  0  0
   11.0637    9.4752    0.9669 O   0  0  0  0  0  0  0  0  0  0  0  0
    4.6896    3.7376   -1.6177 H   0  0  0  0  0  0  0  0  0  0  0  0
    3.6253    5.0679    2.4965 H   0  0  0  0  0  0  0  0  0  0  0  0
    4.9976    2.9801    1.8398 H   0  0  0  0  0  0  0  0  0  0  0  0
    0.0051    4.7985   -3.0299 H   0  0  0  0  0  0  0  0  0  0  0  0
    2.4004    4.4148   -3.9524 H   0  0  0  0  0  0  0  0  0  0  0  0
    1.4947    6.8267   -3.6512 H   0  0  0  0  0  0  0  0  0  0  0  0
    0.0000    7.4593   -0.4355 H   0  0  0  0  0  0  0  0  0  0  0  0
    1.9821    7.4969    1.2412 H   0  0  0  0  0  0  0  0  0  0  0  0
    0.2605    5.5581    1.3069 H   0  0  0  0  0  0  0  0  0  0  0  0
   11.0716    2.5426    1.9787 H   0  0  0  0  0  0  0  0  0  0  0  0
   10.0919    5.6868    4.3092 H   0  0  0  0  0  0  0  0  0  0  0  0
   12.3259    6.5099    3.2742 H   0  0  0  0  0  0  0  0  0  0  0  0
   13.1058    4.8861    6.4513 H   0  0  0  0  0  0  0  0  0  0  0  0
   15.1121    5.1180    4.8286 H   0  0  0  0  0  0  0  0  0  0  0  0
   15.0694    3.1938    6.5669 H   0  0  0  0  0  0  0  0  0  0  0  0
   13.5127    0.0972    5.4837 H   0  0  0  0  0  0  0  0  0  0  0  0
   15.3835    0.7446    3.8101 H   0  0  0  0  0  0  0  0  0  0  0  0
   13.0572    0.0000    2.9313 H   0  0  0  0  0  0  0  0  0  0  0  0
    5.2012   10.7061    0.3404 H   0  0  0  0  0  0  0  0  0  0  0  0
    5.4550   14.0591   -0.9509 H   0  0  0  0  0  0  0  0  0  0  0  0
    7.6628   12.7285   -1.2449 H   0  0  0  0  0  0  0  0  0  0  0  0
    7.4647   14.5079    0.6323 H   0  0  0  0  0  0  0  0  0  0  0  0
    3.2925   13.3967    1.7689 H   0  0  0  0  0  0  0  0  0  0  0  0
    5.1868   13.8098    3.4983 H   0  0  0  0  0  0  0  0  0  0  0  0
    3.8904   11.5560    3.5053 H   0  0  0  0  0  0  0  0  0  0  0  0
    7.3047    2.6577   -0.1253 H   0  0  0  0  0  0  0  0  0  0  0  0
   11.5473    4.5613   -0.5165 H   0  0  0  0  0  0  0  0  0  0  0  0
   12.1179    8.7619    0.4031 H   0  0  0  0  0  0  0  0  0  0  0  0
  1  2  1  0  0  0  0
  1  3  2  0  0  0  0
  1 19  1  0  0  0  0
  2  6  1  0  0  0  0
  2  7  2  0  0  0  0
  3  4  1  0  0  0  0
  3 25  1  0  0  0  0
  4  5  1  0  0  0  0
  4 14  1  1  0  0  0
  4 24  1  6  0  0  0
  5  6  2  0  0  0  0
  5 23  1  0  0  0  0
  6  9  1  0  0  0  0
  8  9  1  1  0  0  0
  8 10  2  0  0  0  0
  8 26  1  6  0  0  0
  9 27  1  1  0  0  0
  9 28  1  0  0  0  0
 10 11  1  6  0  0  0
 10 12  1  1  0  0  0
 11 29  1  0  0  0  0
 11 30  1  6  0  0  0
 11 31  1  0  0  0  0
 12 32  1  6  0  0  0
 12 33  1  1  0  0  0
 12 34  1  1  0  0  0
 13 14  1  0  0  0  0
 13 15  2  0  0  0  0
 13 35  1  6  0  0  0
 14 36  1  1  0  0  0
 14 37  1  0  0  0  0
 15 16  1  1  0  0  0
 15 17  1  0  0  0  0
 16 38  1  1  0  0  0
 16 39  1  6  0  0  0
 16 40  1  1  0  0  0
 17 41  1  1  0  0  0
 17 42  1  0  0  0  0
 17 43  1  6  0  0  0
 18 19  2  0  0  0  0
 19 20  1  6  0  0  0
 20 21  1  6  0  0  0
 20 22  1  1  0  0  0
 20 44  1  6  0  0  0
 21 45  1  6  0  0  0
 21 46  1  6  0  0  0
 21 47  1  1  0  0  0
 22 48  1  6  0  0  0
 22 49  1  1  0  0  0
 22 50  1  1  0  0  0
 23 51  1  0  0  0  0
 24 52  1  0  0  0  0
 25 53  1  0  0  0  0
M  END
>  <Formula> (178)
C20H28O5

>  <Name> (178)
3,4,5-TRIHYDROXY-2-ISOBUTYRYL-4,6-BIS(3-METHYL-2-BUTENYL)- 2,5-CYCLOHEXADIEN-1-ONE

>  <CAS-Nr> (178)
511-25-1

>  <EINECS> (178)
---

>  <Compound classification> (178)
Terpene related

>  <Microorganism> (178)
Lactobacillus plantarum

>  <Microorganism type> (178)
Nos. 8531

>  <Microorganism classification> (178)
Bac+

>  <MIC> (178)
5

>  <Annotation> (178)
MIC: MIC-range: >1-<10 ppm

>  <Method abbreviation> (178)
SDT

>  <Ref-Nr> (178)
6392

>  <Marker> (178)
0

>  <Method> (178)
Serial dilution test; Inoculum size: 10E4 cells/ml; Medium: nutrient broth + malt + yeast extract + peptone broth; pH: 5.3 (it did not fall below 4.5 during incubation); Incubation-temperature: 30 degrees Centigrade; Incubation-time: 24-48h; Solubility enhancer: ethanol

>  <Reference> (178)
Hough, J.S., Howard, G.A., Slater, C.A.: Bacteriostatic Activities of Hop Resin Materials; Journal of the Institute of Brewing 63, 331-3 (1957)

>  <mol_id> (178)
2600

>  <MolWeight> (178)
348.43

>  <Nickname> (178)
Cohumulone

$$$$

csChmFindW11180110282D

 28 29  0  0  0  0  0  0  0  0999 V2000
    2.0009    6.1760   -0.4402 C   0  0  0  0  0  0  0  0  0  0  0  0
    1.2542    4.6304   -0.9165 C   0  0  0  0  0  0  0  0  0  0  0  0
    2.1005    3.0971   -0.5899 C   0  0  0  0  0  0  0  0  0  0  0  0
    3.6891    3.1024    0.2107 C   0  0  0  0  0  0  0  0  0  0  0  0
    4.4473    4.6557    0.6915 C   0  0  0  0  0  0  0  0  0  0  0  0
    3.5893    6.1960    0.3599 C   0  0  0  0  0  0  0  0  0  0  0  0
    6.0515    4.6681    1.5022 C   0  0  0  0  0  0  0  0  0  0  0  0
    7.4158    4.6870    2.1921 C   0  0  0  0  0  0  0  0  0  0  0  0
    9.0616    4.7401    3.0263 C   0  0  0  0  0  0  0  0  0  0  0  0
    8.8893    3.9362    4.6571 O   0  0  0  0  0  0  0  0  0  0  0  0
   10.4210    3.8983    1.9539 C   0  0  0  0  0  0  0  0  0  0  0  0
   11.3785    4.8775    0.8082 C   0  0  0  0  0  0  0  0  0  0  0  0
   12.6392    4.1067   -0.1852 C   0  0  0  0  0  0  0  0  0  0  0  0
   12.9493    2.3587   -0.0377 C   0  0  0  0  0  0  0  0  0  0  0  0
   11.9946    1.3793    1.1039 C   0  0  0  0  0  0  0  0  0  0  0  0
   10.7308    2.1452    2.0966 C   0  0  0  0  0  0  0  0  0  0  0  0
    1.3343    7.3856   -0.6962 H   0  0  0  0  0  0  0  0  0  0  0  0
    0.0000    4.6209   -1.5484 H   0  0  0  0  0  0  0  0  0  0  0  0
    1.5129    1.8772   -0.9643 H   0  0  0  0  0  0  0  0  0  0  0  0
    4.3548    1.8928    0.4706 H   0  0  0  0  0  0  0  0  0  0  0  0
    4.1759    7.4157    0.7358 H   0  0  0  0  0  0  0  0  0  0  0  0
    9.4231    6.1255    3.2489 H   0  0  0  0  0  0  0  0  0  0  0  0
   10.0323    3.7972    5.0969 H   0  0  0  0  0  0  0  0  0  0  0  0
   11.1341    6.2559    0.6869 H   0  0  0  0  0  0  0  0  0  0  0  0
   13.3884    4.8799   -1.0871 H   0  0  0  0  0  0  0  0  0  0  0  0
   13.9440    1.7528   -0.8228 H   0  0  0  0  0  0  0  0  0  0  0  0
   12.2343    0.0000    1.2193 H   0  0  0  0  0  0  0  0  0  0  0  0
    9.9645    1.3786    2.9932 H   0  0  0  0  0  0  0  0  0  0  0  0
  1  2  2  0  0  0  0
  1  6  1  1  0  0  0
  1 17  1  0  0  0  0
  2  3  1  0  0  0  0
  2 18  1  6  0  0  0
  3  4  2  0  0  0  0
  3 19  1  0  0  0  0
  4  5  1  0  0  0  0
  4 20  1  0  0  0  0
  5  6  2  0  0  0  0
  5  7  1  1  0  0  0
  6 21  1  0  0  0  0
  7  8  3  0  0  0  0
  8  9  1  1  0  0  0
  9 10  1  1  0  0  0
  9 11  1  6  0  0  0
  9 22  1  0  0  0  0
 10 23  1  0  0  0  0
 11 12  2  0  0  0  0
 11 16  1  0  0  0  0
 12 13  1  6  0  0  0
 12 24  1  0  0  0  0
 13 14  2  0  0  0  0
 13 25  1  6  0  0  0
 14 15  1  1  0  0  0
 14 26  1  6  0  0  0
 15 16  2  0  0  0  0
 15 27  1  0  0  0  0
 16 28  1  1  0  0  0
M  END
>  <Formula> (179)
C15H12O

>  <Name> (179)
1,3-DIPHENYL-PROP-2-YN-1-OL

>  <Compound classification> (179)
Ali-OH

>  <Microorganism> (179)
Staphylococcus aureus

>  <Microorganism type> (179)
pathogen strain

>  <Microorganism classification> (179)
Bac+

>  <MIC> (179)
100

>  <Method abbreviation> (179)
ADlT

>  <Ref-Nr> (179)
6408

>  <Marker> (179)
0

>  <Method> (179)
Serial dilution test (fungi); Inoculum size: ---; Medium: fungi: Sabouraud bouillon, pH: ---; Incubation-temperature: 30 degrees Centigrade; Incubation-time: 3 weeks; Solubility enhancer: PEG 400 Agar dilution test (bacteria); Inoculum size: ---; Medium: meat-peptone agar; pH: 7.0-7.2; Incubation-temperature: 37 degrees Centigrade; Incubation-time: 24h; Solubility enhancer: PEG 400

>  <Reference> (179)
Reisch, J., Spitzner, W., Schulte, K.E.: Zur Frage der mikrobiologischen Wirksamkeit einfacher Acetylenverbindungen; Arzneimittel-Forschung 17, 816-25 (1967)

>  <mol_id> (179)
2500

>  <MolWeight> (179)
208.25

>  <Nickname> (179)
1,3-Diphenyl-prop-2-yn-1-ol

$$$$

csChmFindW11180110282D

 28 29  0  0  0  0  0  0  0  0999 V2000
    2.0009    6.1760   -0.4402 C   0  0  0  0  0  0  0  0  0  0  0  0
    1.2542    4.6304   -0.9165 C   0  0  0  0  0  0  0  0  0  0  0  0
    2.1005    3.0971   -0.5899 C   0  0  0  0  0  0  0  0  0  0  0  0
    3.6891    3.1024    0.2107 C   0  0  0  0  0  0  0  0  0  0  0  0
    4.4473    4.6557    0.6915 C   0  0  0  0  0  0  0  0  0  0  0  0
    3.5893    6.1960    0.3599 C   0  0  0  0  0  0  0  0  0  0  0  0
    6.0515    4.6681    1.5022 C   0  0  0  0  0  0  0  0  0  0  0  0
    7.4158    4.6870    2.1921 C   0  0  0  0  0  0  0  0  0  0  0  0
    9.0616    4.7401    3.0263 C   0  0  0  0  0  0  0  0  0  0  0  0
    8.8893    3.9362    4.6571 O   0  0  0  0  0  0  0  0  0  0  0  0
   10.4210    3.8983    1.9539 C   0  0  0  0  0  0  0  0  0  0  0  0
   11.3785    4.8775    0.8082 C   0  0  0  0  0  0  0  0  0  0  0  0
   12.6392    4.1067   -0.1852 C   0  0  0  0  0  0  0  0  0  0  0  0
   12.9493    2.3587   -0.0377 C   0  0  0  0  0  0  0  0  0  0  0  0
   11.9946    1.3793    1.1039 C   0  0  0  0  0  0  0  0  0  0  0  0
   10.7308    2.1452    2.0966 C   0  0  0  0  0  0  0  0  0  0  0  0
    1.3343    7.3856   -0.6962 H   0  0  0  0  0  0  0  0  0  0  0  0
    0.0000    4.6209   -1.5484 H   0  0  0  0  0  0  0  0  0  0  0  0
    1.5129    1.8772   -0.9643 H   0  0  0  0  0  0  0  0  0  0  0  0
    4.3548    1.8928    0.4706 H   0  0  0  0  0  0  0  0  0  0  0  0
    4.1759    7.4157    0.7358 H   0  0  0  0  0  0  0  0  0  0  0  0
    9.4231    6.1255    3.2489 H   0  0  0  0  0  0  0  0  0  0  0  0
   10.0323    3.7972    5.0969 H   0  0  0  0  0  0  0  0  0  0  0  0
   11.1341    6.2559    0.6869 H   0  0  0  0  0  0  0  0  0  0  0  0
   13.3884    4.8799   -1.0871 H   0  0  0  0  0  0  0  0  0  0  0  0
   13.9440    1.7528   -0.8228 H   0  0  0  0  0  0  0  0  0  0  0  0
   12.2343    0.0000    1.2193 H   0  0  0  0  0  0  0  0  0  0  0  0
    9.9645    1.3786    2.9932 H   0  0  0  0  0  0  0  0  0  0  0  0
  1  2  2  0  0  0  0
  1  6  1  1  0  0  0
  1 17  1  0  0  0  0
  2  3  1  0  0  0  0
  2 18  1  6  0  0  0
  3  4  2  0  0  0  0
  3 19  1  0  0  0  0
  4  5  1  0  0  0  0
  4 20  1  0  0  0  0
  5  6  2  0  0  0  0
  5  7  1  1  0  0  0
  6 21  1  0  0  0  0
  7  8  3  0  0  0  0
  8  9  1  1  0  0  0
  9 10  1  1  0  0  0
  9 11  1  6  0  0  0
  9 22  1  0  0  0  0
 10 23  1  0  0  0  0
 11 12  2  0  0  0  0
 11 16  1  0  0  0  0
 12 13  1  6  0  0  0
 12 24  1  0  0  0  0
 13 14  2  0  0  0  0
 13 25  1  6  0  0  0
 14 15  1  1  0  0  0
 14 26  1  6  0  0  0
 15 16  2  0  0  0  0
 15 27  1  0  0  0  0
 16 28  1  1  0  0  0
M  END
>  <Formula> (180)
C15H12O

>  <Name> (180)
1,3-DIPHENYL-PROP-2-YN-1-OL

>  <Compound classification> (180)
Ali-OH

>  <Microorganism> (180)
Eschericia coli

>  <Microorganism type> (180)
ATCC 9637

>  <Microorganism classification> (180)
Bac-

>  <MIC> (180)
500

>  <Method abbreviation> (180)
ADlT

>  <Ref-Nr> (180)
6408

>  <Marker> (180)
0

>  <Method> (180)
Serial dilution test (fungi); Inoculum size: ---; Medium: fungi: Sabouraud bouillon, pH: ---; Incubation-temperature: 30 degrees Centigrade; Incubation-time: 3 weeks; Solubility enhancer: PEG 400 Agar dilution test (bacteria); Inoculum size: ---; Medium: meat-peptone agar; pH: 7.0-7.2; Incubation-temperature: 37 degrees Centigrade; Incubation-time: 24h; Solubility enhancer: PEG 400

>  <Reference> (180)
Reisch, J., Spitzner, W., Schulte, K.E.: Zur Frage der mikrobiologischen Wirksamkeit einfacher Acetylenverbindungen; Arzneimittel-Forschung 17, 816-25 (1967)

>  <mol_id> (180)
2500

>  <MolWeight> (180)
208.25

>  <Nickname> (180)
1,3-Diphenyl-prop-2-yn-1-ol

$$$$

csChmFindW11180110282D

 28 29  0  0  0  0  0  0  0  0999 V2000
    2.0009    6.1760   -0.4402 C   0  0  0  0  0  0  0  0  0  0  0  0
    1.2542    4.6304   -0.9165 C   0  0  0  0  0  0  0  0  0  0  0  0
    2.1005    3.0971   -0.5899 C   0  0  0  0  0  0  0  0  0  0  0  0
    3.6891    3.1024    0.2107 C   0  0  0  0  0  0  0  0  0  0  0  0
    4.4473    4.6557    0.6915 C   0  0  0  0  0  0  0  0  0  0  0  0
    3.5893    6.1960    0.3599 C   0  0  0  0  0  0  0  0  0  0  0  0
    6.0515    4.6681    1.5022 C   0  0  0  0  0  0  0  0  0  0  0  0
    7.4158    4.6870    2.1921 C   0  0  0  0  0  0  0  0  0  0  0  0
    9.0616    4.7401    3.0263 C   0  0  0  0  0  0  0  0  0  0  0  0
    8.8893    3.9362    4.6571 O   0  0  0  0  0  0  0  0  0  0  0  0
   10.4210    3.8983    1.9539 C   0  0  0  0  0  0  0  0  0  0  0  0
   11.3785    4.8775    0.8082 C   0  0  0  0  0  0  0  0  0  0  0  0
   12.6392    4.1067   -0.1852 C   0  0  0  0  0  0  0  0  0  0  0  0
   12.9493    2.3587   -0.0377 C   0  0  0  0  0  0  0  0  0  0  0  0
   11.9946    1.3793    1.1039 C   0  0  0  0  0  0  0  0  0  0  0  0
   10.7308    2.1452    2.0966 C   0  0  0  0  0  0  0  0  0  0  0  0
    1.3343    7.3856   -0.6962 H   0  0  0  0  0  0  0  0  0  0  0  0
    0.0000    4.6209   -1.5484 H   0  0  0  0  0  0  0  0  0  0  0  0
    1.5129    1.8772   -0.9643 H   0  0  0  0  0  0  0  0  0  0  0  0
    4.3548    1.8928    0.4706 H   0  0  0  0  0  0  0  0  0  0  0  0
    4.1759    7.4157    0.7358 H   0  0  0  0  0  0  0  0  0  0  0  0
    9.4231    6.1255    3.2489 H   0  0  0  0  0  0  0  0  0  0  0  0
   10.0323    3.7972    5.0969 H   0  0  0  0  0  0  0  0  0  0  0  0
   11.1341    6.2559    0.6869 H   0  0  0  0  0  0  0  0  0  0  0  0
   13.3884    4.8799   -1.0871 H   0  0  0  0  0  0  0  0  0  0  0  0
   13.9440    1.7528   -0.8228 H   0  0  0  0  0  0  0  0  0  0  0  0
   12.2343    0.0000    1.2193 H   0  0  0  0  0  0  0  0  0  0  0  0
    9.9645    1.3786    2.9932 H   0  0  0  0  0  0  0  0  0  0  0  0
  1  2  2  0  0  0  0
  1  6  1  1  0  0  0
  1 17  1  0  0  0  0
  2  3  1  0  0  0  0
  2 18  1  6  0  0  0
  3  4  2  0  0  0  0
  3 19  1  0  0  0  0
  4  5  1  0  0  0  0
  4 20  1  0  0  0  0
  5  6  2  0  0  0  0
  5  7  1  1  0  0  0
  6 21  1  0  0  0  0
  7  8  3  0  0  0  0
  8  9  1  1  0  0  0
  9 10  1  1  0  0  0
  9 11  1  6  0  0  0
  9 22  1  0  0  0  0
 10 23  1  0  0  0  0
 11 12  2  0  0  0  0
 11 16  1  0  0  0  0
 12 13  1  6  0  0  0
 12 24  1  0  0  0  0
 13 14  2  0  0  0  0
 13 25  1  6  0  0  0
 14 15  1  1  0  0  0
 14 26  1  6  0  0  0
 15 16  2  0  0  0  0
 15 27  1  0  0  0  0
 16 28  1  1  0  0  0
M  END
>  <Formula> (181)
C15H12O

>  <Name> (181)
1,3-DIPHENYL-PROP-2-YN-1-OL

>  <Compound classification> (181)
Ali-OH

>  <Microorganism> (181)
Pseudomonas aeruginosa

>  <Microorganism classification> (181)
Bac-

>  <MIC> (181)
1000

>  <Method abbreviation> (181)
ADlT

>  <Ref-Nr> (181)
6408

>  <Marker> (181)
0

>  <Method> (181)
Serial dilution test (fungi); Inoculum size: ---; Medium: fungi: Sabouraud bouillon, pH: ---; Incubation-temperature: 30 degrees Centigrade; Incubation-time: 3 weeks; Solubility enhancer: PEG 400 Agar dilution test (bacteria); Inoculum size: ---; Medium: meat-peptone agar; pH: 7.0-7.2; Incubation-temperature: 37 degrees Centigrade; Incubation-time: 24h; Solubility enhancer: PEG 400

>  <Reference> (181)
Reisch, J., Spitzner, W., Schulte, K.E.: Zur Frage der mikrobiologischen Wirksamkeit einfacher Acetylenverbindungen; Arzneimittel-Forschung 17, 816-25 (1967)

>  <mol_id> (181)
2500

>  <MolWeight> (181)
208.25

>  <Nickname> (181)
1,3-Diphenyl-prop-2-yn-1-ol

$$$$

csChmFindW11180110282D

 14 14  0  0  0  0  0  0  0  0999 V2000
    4.2729    0.9591    0.0005 C   0  0  0  0  0  0  0  0  0  0  0  0
    2.8729    0.9629    0.0006 C   0  0  0  0  0  0  0  0  0  0  0  0
    4.9789    2.1717    0.0000 C   0  0  0  0  0  0  0  0  0  0  0  0
    2.1710    2.1833    0.0002 C   0  0  0  0  0  0  0  0  0  0  0  0
    4.2845    3.3897   -0.0004 C   0  0  0  0  0  0  0  0  0  0  0  0
    2.8836    3.3971   -0.0005 C   0  0  0  0  0  0  0  0  0  0  0  0
    0.6921    2.1791    0.0000 C   0  0  0  0  0  0  0  0  0  0  0  0
    0.0000    3.2071   -0.0003 O   0  0  0  0  0  0  0  0  0  0  0  0
    4.8224    0.0000    0.0009 H   0  0  0  0  0  0  0  0  0  0  0  0
    2.3178    0.0057    0.0011 H   0  0  0  0  0  0  0  0  0  0  0  0
    6.0848    2.1663    0.0000 H   0  0  0  0  0  0  0  0  0  0  0  0
    4.8421    4.3443   -0.0009 H   0  0  0  0  0  0  0  0  0  0  0  0
    2.3223    4.3522   -0.0008 H   0  0  0  0  0  0  0  0  0  0  0  0
    0.2224    1.1623    0.0005 H   0  0  0  0  0  0  0  0  0  0  0  0
  1  2  2  0  0  0  0
  1  3  1  0  0  0  0
  1  9  1  0  0  0  0
  2  4  1  0  0  0  0
  2 10  1  0  0  0  0
  3  5  2  0  0  0  0
  3 11  1  0  0  0  0
  4  6  2  0  0  0  0
  4  7  1  0  0  0  0
  5  6  1  0  0  0  0
  5 12  1  0  0  0  0
  6 13  1  0  0  0  0
  7  8  2  0  0  0  0
  7 14  1  0  0  0  0
M  END
>  <Formula> (182)
C7H6O

>  <Name> (182)
BENZALDEHYDE

>  <CAS-Nr> (182)
100-52-7

>  <EINECS> (182)
202-860-4

>  <21 CFR> (182)
182.60, 582.60

>  <LD50-rat-oral> (182)
1300

>  <Compound classification> (182)
Ar-CHO

>  <Microorganism> (182)
Candida albicans

>  <Microorganism classification> (182)
yeast

>  <NIC> (182)
200

>  <Method abbreviation> (182)
SDT

>  <Ref-Nr> (182)
6409

>  <Marker> (182)
0

>  <Method> (182)
Serial dilution test; Inoculum size: 1 drop of 10 day culture; Medium: mash broth; pH: 6.0-6.2; Incubation-temperature: 30 degrees Centigrade; Incubation-time: 5 or 10d; Solubility enhancer: ethanol

>  <Reference> (182)
Zsolnai, T.: Versuche zur Entdeckung neuer Fungistatika. V.; Biochemical Pharmacology 11, 514-34 (1962)

>  <mol_id> (182)
155

>  <LD50-mouse-oral> (182)
28

>  <LD50-mou-ip> (182)
9

>  <MolWeight> (182)
106.12

>  <Nickname> (182)
Benzoic aldehyde

>  <other Names> (182)
artificial essential oil of almond

$$$$

csChmFindW11180110282D

 27 28  0  0  0  0  0  0  0  0999 V2000
    2.9004    4.4099   -0.5349 C   0  0  0  0  0  0  0  0  0  0  0  0
    1.2040    3.8269   -1.5240 C   0  0  0  0  0  0  0  0  0  0  0  0
    4.4291    3.8959   -1.8253 C   0  0  0  0  0  0  0  0  0  0  0  0
    2.9248    6.2933    0.1026 C   0  0  0  0  0  0  0  0  0  0  0  0
    3.0330    2.9058    0.9152 C   0  0  0  0  0  0  0  0  0  0  0  0
    1.1940    1.7981   -1.4816 C   0  0  0  0  0  0  0  0  0  0  0  0
    0.0896    4.7933   -2.2265 O   0  0  0  0  0  0  0  0  0  0  0  0
    4.4617    1.8463   -1.7738 C   0  0  0  0  0  0  0  0  0  0  0  0
    2.9371    1.3619   -0.4857 C   0  0  0  0  0  0  0  0  0  0  0  0
    4.7447    2.9332    1.9749 C   0  0  0  0  0  0  0  0  0  0  0  0
    1.4828    2.9054    2.2060 C   0  0  0  0  0  0  0  0  0  0  0  0
    5.7151    4.4764   -1.3561 H   0  0  0  0  0  0  0  0  0  0  0  0
    4.1612    4.4086   -3.1954 H   0  0  0  0  0  0  0  0  0  0  0  0
    4.2524    6.6260    0.6890 H   0  0  0  0  0  0  0  0  0  0  0  0
    1.8798    6.4980    1.1443 H   0  0  0  0  0  0  0  0  0  0  0  0
    2.6491    7.2209   -1.0298 H   0  0  0  0  0  0  0  0  0  0  0  0
    1.1746    1.2371   -2.8591 H   0  0  0  0  0  0  0  0  0  0  0  0
    0.0000    1.2924   -0.7517 H   0  0  0  0  0  0  0  0  0  0  0  0
    5.7654    1.3361   -1.2720 H   0  0  0  0  0  0  0  0  0  0  0  0
    4.2330    1.2640   -3.1234 H   0  0  0  0  0  0  0  0  0  0  0  0
    3.0029    0.0000    0.0721 H   0  0  0  0  0  0  0  0  0  0  0  0
    4.7866    1.7584    2.8891 H   0  0  0  0  0  0  0  0  0  0  0  0
    4.8101    4.1760    2.7941 H   0  0  0  0  0  0  0  0  0  0  0  0
    5.9492    2.8912    1.1054 H   0  0  0  0  0  0  0  0  0  0  0  0
    1.3865    1.5805    2.8774 H   0  0  0  0  0  0  0  0  0  0  0  0
    0.1896    3.1864    1.5257 H   0  0  0  0  0  0  0  0  0  0  0  0
    1.6844    3.9511    3.2476 H   0  0  0  0  0  0  0  0  0  0  0  0
  1  2  1  6  0  0  0
  1  3  1  6  0  0  0
  1  4  1  0  0  0  0
  1  5  1  1  0  0  0
  2  6  1  0  0  0  0
  2  7  2  0  0  0  0
  3  8  1  0  0  0  0
  3 12  1  0  0  0  0
  3 13  1  6  0  0  0
  4 14  1  0  0  0  0
  4 15  1  1  0  0  0
  4 16  1  6  0  0  0
  5  9  1  6  0  0  0
  5 10  1  1  0  0  0
  5 11  1  1  0  0  0
  6  9  1  1  0  0  0
  6 17  1  6  0  0  0
  6 18  1  1  0  0  0
  8  9  1  1  0  0  0
  8 19  1  0  0  0  0
  8 20  1  6  0  0  0
  9 21  1  0  0  0  0
 10 22  1  1  0  0  0
 10 23  1  1  0  0  0
 10 24  1  6  0  0  0
 11 25  1  1  0  0  0
 11 26  1  6  0  0  0
 11 27  1  1  0  0  0
M  END
>  <Formula> (183)
C10H16O

>  <Name> (183)
1,7,7-TRIMETHYLBICYCLO[2.2.1]HEPTAN-2-ONE

>  <CAS-Nr> (183)
21368-68-3

>  <EINECS> (183)
200-945-0, 244-350-4

>  <21 CFR> (183)
172.515 (D-Camphor), 175.105

>  <LD50-rat-oral> (183)
3000

>  <Compound classification> (183)
Monoterpene

>  <Microorganism> (183)
Trichophyton mentagrophytes

>  <Publication strain name> (183)
Trichophyton gypseum

>  <Microorganism classification> (183)
fungi

>  <NIC> (183)
200

>  <Method abbreviation> (183)
SDT

>  <Ref-Nr> (183)
6409

>  <Marker> (183)
0

>  <Method> (183)
Serial dilution test; Inoculum size: 1 drop of 10 day culture; Medium: mash broth; pH: 6.0-6.2; Incubation-temperature: 30 degrees Centigrade; Incubation-time: 5 or 10d; Solubility enhancer: ethanol

>  <Reference> (183)
Zsolnai, T.: Versuche zur Entdeckung neuer Fungistatika. V.; Biochemical Pharmacology 11, 514-34 (1962)

>  <mol_id> (183)
212

>  <LD50-mouse-oral> (183)
1310

>  <LD50-mou-ip> (183)
884

>  <MolWeight> (183)
152.23

>  <Nickname> (183)
d,l-Camphor

>  <other Names> (183)
2-Camphanone, Caladryl, Bornan-2-one

$$$$

csChmFindW11180110282D

 52 51  0  0  0  0  0  0  0  0999 V2000
   17.3424   12.4128    1.5364 C   0  0  0  0  0  0  0  0  0  0  0  0
   19.1245   11.1772    1.7763 C   0  0  0  0  0  0  0  0  0  0  0  0
   15.5340   11.2318    1.8363 C   0  0  0  0  0  0  0  0  0  0  0  0
   20.9139   12.3684    1.6590 C   0  0  0  0  0  0  0  0  0  0  0  0
   13.7486   12.4479    1.5349 C   0  0  0  0  0  0  0  0  0  0  0  0
   21.2363   14.0011    2.2850 O   0  0  0  0  0  0  0  0  0  0  0  0
   22.4019   11.4747    0.7359 O   0  0  0  0  0  0  0  0  0  0  0  0
   11.9337   11.2813    1.8526 C   0  0  0  0  0  0  0  0  0  0  0  0
   10.1511   12.4917    1.5158 C   0  0  0  0  0  0  0  0  0  0  0  0
    8.3341   11.3327    1.8595 C   0  0  0  0  0  0  0  0  0  0  0  0
    6.5679   12.4788    1.5063 C   0  0  0  0  0  0  0  0  0  0  0  0
    4.7935   11.8940    1.9780 C   0  0  0  0  0  0  0  0  0  0  0  0
    4.3778   10.0343    2.9436 C   0  0  0  0  0  0  0  0  0  0  0  0
    2.2978    9.5515    3.0057 C   0  0  0  0  0  0  0  0  0  0  0  0
    1.5600    8.1446    4.0964 C   0  0  0  0  0  0  0  0  0  0  0  0
    2.7212    6.9121    5.3964 C   0  0  0  0  0  0  0  0  0  0  0  0
    1.5561    5.2698    6.2381 C   0  0  0  0  0  0  0  0  0  0  0  0
    2.7747    4.0370    7.5613 C   0  0  0  0  0  0  0  0  0  0  0  0
    1.6077    2.4108    8.4280 C   0  0  0  0  0  0  0  0  0  0  0  0
    2.8109    1.1876    9.7583 C   0  0  0  0  0  0  0  0  0  0  0  0
   17.3303   13.0637    0.0571 H   0  0  0  0  0  0  0  0  0  0  0  0
   17.3882   13.6350    2.5949 H   0  0  0  0  0  0  0  0  0  0  0  0
   19.1701   10.0189    0.6495 H   0  0  0  0  0  0  0  0  0  0  0  0
   19.1172   10.4572    3.2262 H   0  0  0  0  0  0  0  0  0  0  0  0
   15.5265   10.6185    3.3320 H   0  0  0  0  0  0  0  0  0  0  0  0
   15.5206    9.9846    0.8081 H   0  0  0  0  0  0  0  0  0  0  0  0
   13.7508   13.0511    0.0352 H   0  0  0  0  0  0  0  0  0  0  0  0
   13.7707   13.7034    2.5531 H   0  0  0  0  0  0  0  0  0  0  0  0
   23.5232   12.3117    0.7284 H   0  0  0  0  0  0  0  0  0  0  0  0
   11.9195   10.7012    3.3614 H   0  0  0  0  0  0  0  0  0  0  0  0
   11.9228   10.0108    0.8532 H   0  0  0  0  0  0  0  0  0  0  0  0
   10.1580   13.0559    0.0010 H   0  0  0  0  0  0  0  0  0  0  0  0
   10.1700   13.7721    2.5020 H   0  0  0  0  0  0  0  0  0  0  0  0
    8.3283   10.7754    3.3811 H   0  0  0  0  0  0  0  0  0  0  0  0
    8.3281   10.0343    0.8888 H   0  0  0  0  0  0  0  0  0  0  0  0
    6.7843   13.8864    0.8026 H   0  0  0  0  0  0  0  0  0  0  0  0
    3.5389   12.8166    1.6664 H   0  0  0  0  0  0  0  0  0  0  0  0
    4.9710   10.0816    4.4563 H   0  0  0  0  0  0  0  0  0  0  0  0
    5.1730    8.8378    2.1831 H   0  0  0  0  0  0  0  0  0  0  0  0
    1.3500   10.4196    2.0728 H   0  0  0  0  0  0  0  0  0  0  0  0
    0.0000    7.8474    4.0688 H   0  0  0  0  0  0  0  0  0  0  0  0
    3.3196    7.8208    6.5986 H   0  0  0  0  0  0  0  0  0  0  0  0
    3.9928    6.3149    4.5887 H   0  0  0  0  0  0  0  0  0  0  0  0
    0.9608    4.3589    5.0431 H   0  0  0  0  0  0  0  0  0  0  0  0
    0.2964    5.8637    7.0585 H   0  0  0  0  0  0  0  0  0  0  0  0
    3.3875    4.9527    8.7441 H   0  0  0  0  0  0  0  0  0  0  0  0
    4.0237    3.4262    6.7366 H   0  0  0  0  0  0  0  0  0  0  0  0
    1.0029    1.4917    7.2433 H   0  0  0  0  0  0  0  0  0  0  0  0
    0.3521    3.0237    9.2414 H   0  0  0  0  0  0  0  0  0  0  0  0
    1.9229    0.0000   10.3822 H   0  0  0  0  0  0  0  0  0  0  0  0
    3.3984    2.0719   10.9675 H   0  0  0  0  0  0  0  0  0  0  0  0
    4.0488    0.5336    8.9647 H   0  0  0  0  0  0  0  0  0  0  0  0
  1  2  1  0  0  0  0
  1  3  1  0  0  0  0
  1 21  1  6  0  0  0
  1 22  1  1  0  0  0
  2  4  1  0  0  0  0
  2 23  1  6  0  0  0
  2 24  1  1  0  0  0
  3  5  1  0  0  0  0
  3 25  1  1  0  0  0
  3 26  1  6  0  0  0
  4  6  2  0  0  0  0
  4  7  1  6  0  0  0
  5  8  1  0  0  0  0
  5 27  1  6  0  0  0
  5 28  1  1  0  0  0
  7 29  1  0  0  0  0
  8  9  1  0  0  0  0
  8 30  1  1  0  0  0
  8 31  1  6  0  0  0
  9 10  1  0  0  0  0
  9 32  1  6  0  0  0
  9 33  1  1  0  0  0
 10 11  1  0  0  0  0
 10 34  1  1  0  0  0
 10 35  1  6  0  0  0
 11 12  2  0  0  0  0
 11 36  1  0  0  0  0
 12 13  1  1  0  0  0
 12 37  1  0  0  0  0
 13 14  1  0  0  0  0
 13 38  1  1  0  0  0
 13 39  1  6  0  0  0
 14 15  2  0  0  0  0
 14 40  1  6  0  0  0
 15 16  1  1  0  0  0
 15 41  1  0  0  0  0
 16 17  1  0  0  0  0
 16 42  1  1  0  0  0
 16 43  1  6  0  0  0
 17 18  1  1  0  0  0
 17 44  1  6  0  0  0
 17 45  1  1  0  0  0
 18 19  1  0  0  0  0
 18 46  1  1  0  0  0
 18 47  1  6  0  0  0
 19 20  1  1  0  0  0
 19 48  1  6  0  0  0
 19 49  1  1  0  0  0
 20 50  1  0  0  0  0
 20 51  1  1  0  0  0
 20 52  1  6  0  0  0
M  END
>  <Formula> (184)
C18H32O2

>  <Name> (184)
(Z,Z)-9,12-OCTADECADIENOIC ACID

>  <CAS-Nr> (184)
60-33-3

>  <EINECS> (184)
207-334-8

>  <21 CFR> (184)
182.5065, 184.1065

>  <Compound classification> (184)
Ali-COOH

>  <Microorganism> (184)
Penicillium simplicissimum

>  <Microorganism classification> (184)
fungi

>  <NIC> (184)
200

>  <Method abbreviation> (184)
SDT

>  <Ref-Nr> (184)
6409

>  <Marker> (184)
0

>  <Method> (184)
Serial dilution test; Inoculum size: 1 drop of 10 day culture; Medium: mash broth; pH: 6.0-6.2; Incubation-temperature: 30 degrees Centigrade; Incubation-time: 5 or 10d; Solubility enhancer: ethanol

>  <Reference> (184)
Zsolnai, T.: Versuche zur Entdeckung neuer Fungistatika. V.; Biochemical Pharmacology 11, 514-34 (1962)

>  <mol_id> (184)
981

>  <LD50-mouse-oral> (184)
>50000

>  <LD50-mou-ip> (184)
280

>  <MolWeight> (184)
280.44

>  <Nickname> (184)
Linoleic acid

$$$$

csChmFindW11180110282D

 30 33  0  0  0  0  0  0  0  0999 V2000
   10.4780    2.1807    0.0275 C   0  0  0  0  0  0  0  0  0  0  0  0
    9.7883    3.5508    0.0153 C   0  0  0  0  0  0  0  0  0  0  0  0
    9.5900    0.9899    0.0258 C   0  0  0  0  0  0  0  0  0  0  0  0
    8.2325    1.0878    0.0160 C   0  0  0  0  0  0  0  0  0  0  0  0
    7.5244    2.3807    0.0060 C   0  0  0  0  0  0  0  0  0  0  0  0
    6.0845    2.4573   -0.0036 C   0  0  0  0  0  0  0  0  0  0  0  0
    5.2543    1.2611   -0.0052 C   0  0  0  0  0  0  0  0  0  0  0  0
    3.8809    1.3376   -0.0135 C   0  0  0  0  0  0  0  0  0  0  0  0
    3.2001    2.6201   -0.0212 C   0  0  0  0  0  0  0  0  0  0  0  0
    1.7695    2.6826   -0.0295 C   0  0  0  0  0  0  0  0  0  0  0  0
    1.1136    3.9177   -0.0374 C   0  0  0  0  0  0  0  0  0  0  0  0
    1.8747    5.1223   -0.0372 C   0  0  0  0  0  0  0  0  0  0  0  0
    3.2740    5.0783   -0.0289 C   0  0  0  0  0  0  0  0  0  0  0  0
    3.9735    3.8269   -0.0207 C   0  0  0  0  0  0  0  0  0  0  0  0
    5.4381    3.7430   -0.0119 C   0  0  0  0  0  0  0  0  0  0  0  0
    6.2465    4.9239   -0.0112 C   0  0  0  0  0  0  0  0  0  0  0  0
    7.6413    4.8423   -0.0026 C   0  0  0  0  0  0  0  0  0  0  0  0
    8.2918    3.5728    0.0062 C   0  0  0  0  0  0  0  0  0  0  0  0
   10.4710    4.5995    0.0133 O   0  0  0  0  0  0  0  0  0  0  0  0
   11.7252    2.0924    0.0380 O   0  0  0  0  0  0  0  0  0  0  0  0
   10.1081    0.0000    0.0335 H   0  0  0  0  0  0  0  0  0  0  0  0
    7.6228    0.1520    0.0155 H   0  0  0  0  0  0  0  0  0  0  0  0
    5.7391    0.2575    0.0002 H   0  0  0  0  0  0  0  0  0  0  0  0
    3.2552    0.4131   -0.0145 H   0  0  0  0  0  0  0  0  0  0  0  0
    1.1878    1.7309   -0.0294 H   0  0  0  0  0  0  0  0  0  0  0  0
    0.0000    3.9686   -0.0440 H   0  0  0  0  0  0  0  0  0  0  0  0
    1.3459    6.1042   -0.0437 H   0  0  0  0  0  0  0  0  0  0  0  0
    3.8398    6.0386   -0.0286 H   0  0  0  0  0  0  0  0  0  0  0  0
    5.7704    5.9322   -0.0178 H   0  0  0  0  0  0  0  0  0  0  0  0
    8.2692    5.7676   -0.0026 H   0  0  0  0  0  0  0  0  0  0  0  0
  1  2  1  0  0  0  0
  1  3  1  0  0  0  0
  1 20  2  0  0  0  0
  2 18  1  0  0  0  0
  2 19  2  0  0  0  0
  3  4  2  0  0  0  0
  3 21  1  0  0  0  0
  4  5  1  0  0  0  0
  4 22  1  0  0  0  0
  5  6  2  0  0  0  0
  5 18  1  0  0  0  0
  6  7  1  0  0  0  0
  6 15  1  0  0  0  0
  7  8  2  0  0  0  0
  7 23  1  0  0  0  0
  8  9  1  0  0  0  0
  8 24  1  0  0  0  0
  9 10  2  0  0  0  0
  9 14  1  0  0  0  0
 10 11  1  0  0  0  0
 10 25  1  0  0  0  0
 11 12  2  0  0  0  0
 11 26  1  0  0  0  0
 12 13  1  0  0  0  0
 12 27  1  0  0  0  0
 13 14  2  0  0  0  0
 13 28  1  0  0  0  0
 14 15  1  0  0  0  0
 15 16  2  0  0  0  0
 16 17  1  0  0  0  0
 16 29  1  0  0  0  0
 17 18  2  0  0  0  0
 17 30  1  0  0  0  0
M  END
>  <Formula> (185)
C18H10O2

>  <Name> (185)
CHRYSENE-1,2-DIONE

>  <CAS-Nr> (185)
2304-83-8

>  <EINECS> (185)
218-965-3

>  <Compound classification> (185)
Ali-COC

>  <Microorganism> (185)
Aspergillus niger

>  <Microorganism classification> (185)
fungi

>  <NIC> (185)
200

>  <Method abbreviation> (185)
SDT

>  <Ref-Nr> (185)
6409

>  <Marker> (185)
0

>  <Method> (185)
Serial dilution test; Inoculum size: 1 drop of 10 day culture; Medium: mash broth; pH: 6.0-6.2; Incubation-temperature: 30 degrees Centigrade; Incubation-time: 5 or 10d; Solubility enhancer: ethanol

>  <Reference> (185)
Zsolnai, T.: Versuche zur Entdeckung neuer Fungistatika. V.; Biochemical Pharmacology 11, 514-34 (1962)

>  <mol_id> (185)
2550

>  <MolWeight> (185)
258.27

>  <Nickname> (185)
1,2-Chrysoquinone

$$$$

csChmFindW11180110282D

 30 33  0  0  0  0  0  0  0  0999 V2000
   10.4780    2.1807    0.0275 C   0  0  0  0  0  0  0  0  0  0  0  0
    9.7883    3.5508    0.0153 C   0  0  0  0  0  0  0  0  0  0  0  0
    9.5900    0.9899    0.0258 C   0  0  0  0  0  0  0  0  0  0  0  0
    8.2325    1.0878    0.0160 C   0  0  0  0  0  0  0  0  0  0  0  0
    7.5244    2.3807    0.0060 C   0  0  0  0  0  0  0  0  0  0  0  0
    6.0845    2.4573   -0.0036 C   0  0  0  0  0  0  0  0  0  0  0  0
    5.2543    1.2611   -0.0052 C   0  0  0  0  0  0  0  0  0  0  0  0
    3.8809    1.3376   -0.0135 C   0  0  0  0  0  0  0  0  0  0  0  0
    3.2001    2.6201   -0.0212 C   0  0  0  0  0  0  0  0  0  0  0  0
    1.7695    2.6826   -0.0295 C   0  0  0  0  0  0  0  0  0  0  0  0
    1.1136    3.9177   -0.0374 C   0  0  0  0  0  0  0  0  0  0  0  0
    1.8747    5.1223   -0.0372 C   0  0  0  0  0  0  0  0  0  0  0  0
    3.2740    5.0783   -0.0289 C   0  0  0  0  0  0  0  0  0  0  0  0
    3.9735    3.8269   -0.0207 C   0  0  0  0  0  0  0  0  0  0  0  0
    5.4381    3.7430   -0.0119 C   0  0  0  0  0  0  0  0  0  0  0  0
    6.2465    4.9239   -0.0112 C   0  0  0  0  0  0  0  0  0  0  0  0
    7.6413    4.8423   -0.0026 C   0  0  0  0  0  0  0  0  0  0  0  0
    8.2918    3.5728    0.0062 C   0  0  0  0  0  0  0  0  0  0  0  0
   10.4710    4.5995    0.0133 O   0  0  0  0  0  0  0  0  0  0  0  0
   11.7252    2.0924    0.0380 O   0  0  0  0  0  0  0  0  0  0  0  0
   10.1081    0.0000    0.0335 H   0  0  0  0  0  0  0  0  0  0  0  0
    7.6228    0.1520    0.0155 H   0  0  0  0  0  0  0  0  0  0  0  0
    5.7391    0.2575    0.0002 H   0  0  0  0  0  0  0  0  0  0  0  0
    3.2552    0.4131   -0.0145 H   0  0  0  0  0  0  0  0  0  0  0  0
    1.1878    1.7309   -0.0294 H   0  0  0  0  0  0  0  0  0  0  0  0
    0.0000    3.9686   -0.0440 H   0  0  0  0  0  0  0  0  0  0  0  0
    1.3459    6.1042   -0.0437 H   0  0  0  0  0  0  0  0  0  0  0  0
    3.8398    6.0386   -0.0286 H   0  0  0  0  0  0  0  0  0  0  0  0
    5.7704    5.9322   -0.0178 H   0  0  0  0  0  0  0  0  0  0  0  0
    8.2692    5.7676   -0.0026 H   0  0  0  0  0  0  0  0  0  0  0  0
  1  2  1  0  0  0  0
  1  3  1  0  0  0  0
  1 20  2  0  0  0  0
  2 18  1  0  0  0  0
  2 19  2  0  0  0  0
  3  4  2  0  0  0  0
  3 21  1  0  0  0  0
  4  5  1  0  0  0  0
  4 22  1  0  0  0  0
  5  6  2  0  0  0  0
  5 18  1  0  0  0  0
  6  7  1  0  0  0  0
  6 15  1  0  0  0  0
  7  8  2  0  0  0  0
  7 23  1  0  0  0  0
  8  9  1  0  0  0  0
  8 24  1  0  0  0  0
  9 10  2  0  0  0  0
  9 14  1  0  0  0  0
 10 11  1  0  0  0  0
 10 25  1  0  0  0  0
 11 12  2  0  0  0  0
 11 26  1  0  0  0  0
 12 13  1  0  0  0  0
 12 27  1  0  0  0  0
 13 14  2  0  0  0  0
 13 28  1  0  0  0  0
 14 15  1  0  0  0  0
 15 16  2  0  0  0  0
 16 17  1  0  0  0  0
 16 29  1  0  0  0  0
 17 18  2  0  0  0  0
 17 30  1  0  0  0  0
M  END
>  <Formula> (186)
C18H10O2

>  <Name> (186)
CHRYSENE-1,2-DIONE

>  <CAS-Nr> (186)
2304-83-8

>  <EINECS> (186)
218-965-3

>  <Compound classification> (186)
Ali-COC

>  <Microorganism> (186)
Epidermophyton Kaufman-Wolff

>  <Microorganism classification> (186)
fungi

>  <MIC> (186)
200

>  <Method abbreviation> (186)
SDT

>  <Ref-Nr> (186)
6409

>  <Marker> (186)
0

>  <Method> (186)
Serial dilution test; Inoculum size: 1 drop of 10 day culture; Medium: mash broth; pH: 6.0-6.2; Incubation-temperature: 30 degrees Centigrade; Incubation-time: 5 or 10d; Solubility enhancer: ethanol

>  <Reference> (186)
Zsolnai, T.: Versuche zur Entdeckung neuer Fungistatika. V.; Biochemical Pharmacology 11, 514-34 (1962)

>  <mol_id> (186)
2550

>  <MolWeight> (186)
258.27

>  <Nickname> (186)
1,2-Chrysoquinone

$$$$

csChmFindW11180110282D

 30 33  0  0  0  0  0  0  0  0999 V2000
   10.4780    2.1807    0.0275 C   0  0  0  0  0  0  0  0  0  0  0  0
    9.7883    3.5508    0.0153 C   0  0  0  0  0  0  0  0  0  0  0  0
    9.5900    0.9899    0.0258 C   0  0  0  0  0  0  0  0  0  0  0  0
    8.2325    1.0878    0.0160 C   0  0  0  0  0  0  0  0  0  0  0  0
    7.5244    2.3807    0.0060 C   0  0  0  0  0  0  0  0  0  0  0  0
    6.0845    2.4573   -0.0036 C   0  0  0  0  0  0  0  0  0  0  0  0
    5.2543    1.2611   -0.0052 C   0  0  0  0  0  0  0  0  0  0  0  0
    3.8809    1.3376   -0.0135 C   0  0  0  0  0  0  0  0  0  0  0  0
    3.2001    2.6201   -0.0212 C   0  0  0  0  0  0  0  0  0  0  0  0
    1.7695    2.6826   -0.0295 C   0  0  0  0  0  0  0  0  0  0  0  0
    1.1136    3.9177   -0.0374 C   0  0  0  0  0  0  0  0  0  0  0  0
    1.8747    5.1223   -0.0372 C   0  0  0  0  0  0  0  0  0  0  0  0
    3.2740    5.0783   -0.0289 C   0  0  0  0  0  0  0  0  0  0  0  0
    3.9735    3.8269   -0.0207 C   0  0  0  0  0  0  0  0  0  0  0  0
    5.4381    3.7430   -0.0119 C   0  0  0  0  0  0  0  0  0  0  0  0
    6.2465    4.9239   -0.0112 C   0  0  0  0  0  0  0  0  0  0  0  0
    7.6413    4.8423   -0.0026 C   0  0  0  0  0  0  0  0  0  0  0  0
    8.2918    3.5728    0.0062 C   0  0  0  0  0  0  0  0  0  0  0  0
   10.4710    4.5995    0.0133 O   0  0  0  0  0  0  0  0  0  0  0  0
   11.7252    2.0924    0.0380 O   0  0  0  0  0  0  0  0  0  0  0  0
   10.1081    0.0000    0.0335 H   0  0  0  0  0  0  0  0  0  0  0  0
    7.6228    0.1520    0.0155 H   0  0  0  0  0  0  0  0  0  0  0  0
    5.7391    0.2575    0.0002 H   0  0  0  0  0  0  0  0  0  0  0  0
    3.2552    0.4131   -0.0145 H   0  0  0  0  0  0  0  0  0  0  0  0
    1.1878    1.7309   -0.0294 H   0  0  0  0  0  0  0  0  0  0  0  0
    0.0000    3.9686   -0.0440 H   0  0  0  0  0  0  0  0  0  0  0  0
    1.3459    6.1042   -0.0437 H   0  0  0  0  0  0  0  0  0  0  0  0
    3.8398    6.0386   -0.0286 H   0  0  0  0  0  0  0  0  0  0  0  0
    5.7704    5.9322   -0.0178 H   0  0  0  0  0  0  0  0  0  0  0  0
    8.2692    5.7676   -0.0026 H   0  0  0  0  0  0  0  0  0  0  0  0
  1  2  1  0  0  0  0
  1  3  1  0  0  0  0
  1 20  2  0  0  0  0
  2 18  1  0  0  0  0
  2 19  2  0  0  0  0
  3  4  2  0  0  0  0
  3 21  1  0  0  0  0
  4  5  1  0  0  0  0
  4 22  1  0  0  0  0
  5  6  2  0  0  0  0
  5 18  1  0  0  0  0
  6  7  1  0  0  0  0
  6 15  1  0  0  0  0
  7  8  2  0  0  0  0
  7 23  1  0  0  0  0
  8  9  1  0  0  0  0
  8 24  1  0  0  0  0
  9 10  2  0  0  0  0
  9 14  1  0  0  0  0
 10 11  1  0  0  0  0
 10 25  1  0  0  0  0
 11 12  2  0  0  0  0
 11 26  1  0  0  0  0
 12 13  1  0  0  0  0
 12 27  1  0  0  0  0
 13 14  2  0  0  0  0
 13 28  1  0  0  0  0
 14 15  1  0  0  0  0
 15 16  2  0  0  0  0
 16 17  1  0  0  0  0
 16 29  1  0  0  0  0
 17 18  2  0  0  0  0
 17 30  1  0  0  0  0
M  END
>  <Formula> (187)
C18H10O2

>  <Name> (187)
CHRYSENE-1,2-DIONE

>  <CAS-Nr> (187)
2304-83-8

>  <EINECS> (187)
218-965-3

>  <Compound classification> (187)
Ali-COC

>  <Microorganism> (187)
Penicillium simplicissimum

>  <Microorganism classification> (187)
fungi

>  <NIC> (187)
200

>  <Method abbreviation> (187)
SDT

>  <Ref-Nr> (187)
6409

>  <Marker> (187)
0

>  <Method> (187)
Serial dilution test; Inoculum size: 1 drop of 10 day culture; Medium: mash broth; pH: 6.0-6.2; Incubation-temperature: 30 degrees Centigrade; Incubation-time: 5 or 10d; Solubility enhancer: ethanol

>  <Reference> (187)
Zsolnai, T.: Versuche zur Entdeckung neuer Fungistatika. V.; Biochemical Pharmacology 11, 514-34 (1962)

>  <mol_id> (187)
2550

>  <MolWeight> (187)
258.27

>  <Nickname> (187)
1,2-Chrysoquinone

$$$$

csChmFindW11180110282D

 22 24  0  0  0  0  0  0  0  0999 V2000
    2.9085    0.7284    1.0577 C   0  0  0  0  0  0  0  0  0  0  0  0
    4.5224    0.7339    1.1119 C   0  0  0  0  0  0  0  0  0  0  0  0
    2.5149    2.1994    0.7234 C   0  0  0  0  0  0  0  0  0  0  0  0
    1.1349    2.8083    0.5425 C   0  0  0  0  0  0  0  0  0  0  0  0
    1.1241    4.3621    0.2020 C   0  0  0  0  0  0  0  0  0  0  0  0
    2.4542    5.1174    0.0845 C   0  0  0  0  0  0  0  0  0  0  0  0
    3.6919    4.4686    0.2700 C   0  0  0  0  0  0  0  0  0  0  0  0
    5.0647    5.0900    0.1835 C   0  0  0  0  0  0  0  0  0  0  0  0
    6.2279    4.3205    0.3925 C   0  0  0  0  0  0  0  0  0  0  0  0
    6.1922    2.8466    0.7116 C   0  0  0  0  0  0  0  0  0  0  0  0
    4.9494    2.2021    0.8079 C   0  0  0  0  0  0  0  0  0  0  0  0
    3.6757    3.0011    0.5894 C   0  0  0  0  0  0  0  0  0  0  0  0
    0.0371    2.1545    0.6481 O   0  0  0  0  0  0  0  0  0  0  0  0
    0.0000    4.9601    0.0306 O   0  0  0  0  0  0  0  0  0  0  0  0
    2.4558    0.4009    2.0778 H   0  0  0  0  0  0  0  0  0  0  0  0
    2.5191    0.0000    0.2386 H   0  0  0  0  0  0  0  0  0  0  0  0
    4.9607    0.0034    0.3200 H   0  0  0  0  0  0  0  0  0  0  0  0
    4.8980    0.4022    2.1615 H   0  0  0  0  0  0  0  0  0  0  0  0
    2.3755    6.2327   -0.1618 H   0  0  0  0  0  0  0  0  0  0  0  0
    5.1216    6.2075   -0.0576 H   0  0  0  0  0  0  0  0  0  0  0  0
    7.2639    4.8062    0.3240 H   0  0  0  0  0  0  0  0  0  0  0  0
    7.1854    2.3023    0.8648 H   0  0  0  0  0  0  0  0  0  0  0  0
  1  2  1  0  0  0  0
  1  3  1  0  0  0  0
  1 15  1  1  0  0  0
  1 16  1  6  0  0  0
  2 11  1  0  0  0  0
  2 17  1  6  0  0  0
  2 18  1  1  0  0  0
  3  4  1  0  0  0  0
  3 12  2  0  0  0  0
  4  5  1  0  0  0  0
  4 13  2  0  0  0  0
  5  6  1  0  0  0  0
  5 14  2  0  0  0  0
  6  7  2  0  0  0  0
  6 19  1  0  0  0  0
  7  8  1  0  0  0  0
  7 12  1  0  0  0  0
  8  9  2  0  0  0  0
  8 20  1  0  0  0  0
  9 10  1  0  0  0  0
  9 21  1  0  0  0  0
 10 11  2  0  0  0  0
 10 22  1  0  0  0  0
 11 12  1  0  0  0  0
M  END
>  <Formula> (188)
C12H8O2

>  <Name> (188)
ACENAPHTHENE-3,4-DIONE

>  <Compound classification> (188)
Ali-COC

>  <Microorganism> (188)
Penicillium simplicissimum

>  <Microorganism classification> (188)
fungi

>  <NIC> (188)
200

>  <Method abbreviation> (188)
SDT

>  <Ref-Nr> (188)
6409

>  <Marker> (188)
0

>  <Method> (188)
Serial dilution test; Inoculum size: 1 drop of 10 day culture; Medium: mash broth; pH: 6.0-6.2; Incubation-temperature: 30 degrees Centigrade; Incubation-time: 5 or 10d; Solubility enhancer: ethanol

>  <Reference> (188)
Zsolnai, T.: Versuche zur Entdeckung neuer Fungistatika. V.; Biochemical Pharmacology 11, 514-34 (1962)

>  <mol_id> (188)
2551

>  <MolWeight> (188)
184.19

>  <Nickname> (188)
Acenaphthene-9,10-quinone

$$$$

csChmFindW11180110282D

 22 24  0  0  0  0  0  0  0  0999 V2000
    2.9085    0.7284    1.0577 C   0  0  0  0  0  0  0  0  0  0  0  0
    4.5224    0.7339    1.1119 C   0  0  0  0  0  0  0  0  0  0  0  0
    2.5149    2.1994    0.7234 C   0  0  0  0  0  0  0  0  0  0  0  0
    1.1349    2.8083    0.5425 C   0  0  0  0  0  0  0  0  0  0  0  0
    1.1241    4.3621    0.2020 C   0  0  0  0  0  0  0  0  0  0  0  0
    2.4542    5.1174    0.0845 C   0  0  0  0  0  0  0  0  0  0  0  0
    3.6919    4.4686    0.2700 C   0  0  0  0  0  0  0  0  0  0  0  0
    5.0647    5.0900    0.1835 C   0  0  0  0  0  0  0  0  0  0  0  0
    6.2279    4.3205    0.3925 C   0  0  0  0  0  0  0  0  0  0  0  0
    6.1922    2.8466    0.7116 C   0  0  0  0  0  0  0  0  0  0  0  0
    4.9494    2.2021    0.8079 C   0  0  0  0  0  0  0  0  0  0  0  0
    3.6757    3.0011    0.5894 C   0  0  0  0  0  0  0  0  0  0  0  0
    0.0371    2.1545    0.6481 O   0  0  0  0  0  0  0  0  0  0  0  0
    0.0000    4.9601    0.0306 O   0  0  0  0  0  0  0  0  0  0  0  0
    2.4558    0.4009    2.0778 H   0  0  0  0  0  0  0  0  0  0  0  0
    2.5191    0.0000    0.2386 H   0  0  0  0  0  0  0  0  0  0  0  0
    4.9607    0.0034    0.3200 H   0  0  0  0  0  0  0  0  0  0  0  0
    4.8980    0.4022    2.1615 H   0  0  0  0  0  0  0  0  0  0  0  0
    2.3755    6.2327   -0.1618 H   0  0  0  0  0  0  0  0  0  0  0  0
    5.1216    6.2075   -0.0576 H   0  0  0  0  0  0  0  0  0  0  0  0
    7.2639    4.8062    0.3240 H   0  0  0  0  0  0  0  0  0  0  0  0
    7.1854    2.3023    0.8648 H   0  0  0  0  0  0  0  0  0  0  0  0
  1  2  1  0  0  0  0
  1  3  1  0  0  0  0
  1 15  1  1  0  0  0
  1 16  1  6  0  0  0
  2 11  1  0  0  0  0
  2 17  1  6  0  0  0
  2 18  1  1  0  0  0
  3  4  1  0  0  0  0
  3 12  2  0  0  0  0
  4  5  1  0  0  0  0
  4 13  2  0  0  0  0
  5  6  1  0  0  0  0
  5 14  2  0  0  0  0
  6  7  2  0  0  0  0
  6 19  1  0  0  0  0
  7  8  1  0  0  0  0
  7 12  1  0  0  0  0
  8  9  2  0  0  0  0
  8 20  1  0  0  0  0
  9 10  1  0  0  0  0
  9 21  1  0  0  0  0
 10 11  2  0  0  0  0
 10 22  1  0  0  0  0
 11 12  1  0  0  0  0
M  END
>  <Formula> (189)
C12H8O2

>  <Name> (189)
ACENAPHTHENE-3,4-DIONE

>  <Compound classification> (189)
Ali-COC

>  <Microorganism> (189)
Trichophyton mentagrophytes

>  <Publication strain name> (189)
Trichophyton gypseum

>  <Microorganism classification> (189)
fungi

>  <MIC> (189)
200

>  <Method abbreviation> (189)
SDT

>  <Ref-Nr> (189)
6409

>  <Marker> (189)
0

>  <Method> (189)
Serial dilution test; Inoculum size: 1 drop of 10 day culture; Medium: mash broth; pH: 6.0-6.2; Incubation-temperature: 30 degrees Centigrade; Incubation-time: 5 or 10d; Solubility enhancer: ethanol

>  <Reference> (189)
Zsolnai, T.: Versuche zur Entdeckung neuer Fungistatika. V.; Biochemical Pharmacology 11, 514-34 (1962)

>  <mol_id> (189)
2551

>  <MolWeight> (189)
184.19

>  <Nickname> (189)
Acenaphthene-9,10-quinone

$$$$

csChmFindW11180110282D

 22 24  0  0  0  0  0  0  0  0999 V2000
    2.9085    0.7284    1.0577 C   0  0  0  0  0  0  0  0  0  0  0  0
    4.5224    0.7339    1.1119 C   0  0  0  0  0  0  0  0  0  0  0  0
    2.5149    2.1994    0.7234 C   0  0  0  0  0  0  0  0  0  0  0  0
    1.1349    2.8083    0.5425 C   0  0  0  0  0  0  0  0  0  0  0  0
    1.1241    4.3621    0.2020 C   0  0  0  0  0  0  0  0  0  0  0  0
    2.4542    5.1174    0.0845 C   0  0  0  0  0  0  0  0  0  0  0  0
    3.6919    4.4686    0.2700 C   0  0  0  0  0  0  0  0  0  0  0  0
    5.0647    5.0900    0.1835 C   0  0  0  0  0  0  0  0  0  0  0  0
    6.2279    4.3205    0.3925 C   0  0  0  0  0  0  0  0  0  0  0  0
    6.1922    2.8466    0.7116 C   0  0  0  0  0  0  0  0  0  0  0  0
    4.9494    2.2021    0.8079 C   0  0  0  0  0  0  0  0  0  0  0  0
    3.6757    3.0011    0.5894 C   0  0  0  0  0  0  0  0  0  0  0  0
    0.0371    2.1545    0.6481 O   0  0  0  0  0  0  0  0  0  0  0  0
    0.0000    4.9601    0.0306 O   0  0  0  0  0  0  0  0  0  0  0  0
    2.4558    0.4009    2.0778 H   0  0  0  0  0  0  0  0  0  0  0  0
    2.5191    0.0000    0.2386 H   0  0  0  0  0  0  0  0  0  0  0  0
    4.9607    0.0034    0.3200 H   0  0  0  0  0  0  0  0  0  0  0  0
    4.8980    0.4022    2.1615 H   0  0  0  0  0  0  0  0  0  0  0  0
    2.3755    6.2327   -0.1618 H   0  0  0  0  0  0  0  0  0  0  0  0
    5.1216    6.2075   -0.0576 H   0  0  0  0  0  0  0  0  0  0  0  0
    7.2639    4.8062    0.3240 H   0  0  0  0  0  0  0  0  0  0  0  0
    7.1854    2.3023    0.8648 H   0  0  0  0  0  0  0  0  0  0  0  0
  1  2  1  0  0  0  0
  1  3  1  0  0  0  0
  1 15  1  1  0  0  0
  1 16  1  6  0  0  0
  2 11  1  0  0  0  0
  2 17  1  6  0  0  0
  2 18  1  1  0  0  0
  3  4  1  0  0  0  0
  3 12  2  0  0  0  0
  4  5  1  0  0  0  0
  4 13  2  0  0  0  0
  5  6  1  0  0  0  0
  5 14  2  0  0  0  0
  6  7  2  0  0  0  0
  6 19  1  0  0  0  0
  7  8  1  0  0  0  0
  7 12  1  0  0  0  0
  8  9  2  0  0  0  0
  8 20  1  0  0  0  0
  9 10  1  0  0  0  0
  9 21  1  0  0  0  0
 10 11  2  0  0  0  0
 10 22  1  0  0  0  0
 11 12  1  0  0  0  0
M  END
>  <Formula> (190)
C12H8O2

>  <Name> (190)
ACENAPHTHENE-3,4-DIONE

>  <Compound classification> (190)
Ali-COC

>  <Microorganism> (190)
Trichophyton quinckeanum

>  <Publication strain name> (190)
Achorion quinckeanum

>  <Microorganism classification> (190)
fungi

>  <MIC> (190)
200

>  <Method abbreviation> (190)
SDT

>  <Ref-Nr> (190)
6409

>  <Marker> (190)
0

>  <Method> (190)
Serial dilution test; Inoculum size: 1 drop of 10 day culture; Medium: mash broth; pH: 6.0-6.2; Incubation-temperature: 30 degrees Centigrade; Incubation-time: 5 or 10d; Solubility enhancer: ethanol

>  <Reference> (190)
Zsolnai, T.: Versuche zur Entdeckung neuer Fungistatika. V.; Biochemical Pharmacology 11, 514-34 (1962)

>  <mol_id> (190)
2551

>  <MolWeight> (190)
184.19

>  <Nickname> (190)
Acenaphthene-9,10-quinone

$$$$

csChmFindW11180110282D

 26 28  0  0  0  0  0  0  0  0999 V2000
    1.0004    2.5832    0.3748 C   0  0  0  0  0  0  0  0  0  0  0  0
    2.2722    1.8713    0.7204 C   0  0  0  0  0  0  0  0  0  0  0  0
    1.0085    3.9742   -0.0146 C   0  0  0  0  0  0  0  0  0  0  0  0
    2.2708    4.7184   -0.0811 C   0  0  0  0  0  0  0  0  0  0  0  0
    3.5242    4.0539    0.2531 C   0  0  0  0  0  0  0  0  0  0  0  0
    4.8286    4.8917    0.1422 C   0  0  0  0  0  0  0  0  0  0  0  0
    6.1610    4.1073    0.1542 C   0  0  0  0  0  0  0  0  0  0  0  0
    7.3990    4.7628   -0.2778 C   0  0  0  0  0  0  0  0  0  0  0  0
    8.6595    4.0219   -0.2768 C   0  0  0  0  0  0  0  0  0  0  0  0
    8.6893    2.6302    0.1661 C   0  0  0  0  0  0  0  0  0  0  0  0
    7.4600    1.9750    0.6106 C   0  0  0  0  0  0  0  0  0  0  0  0
    6.1898    2.7076    0.6013 C   0  0  0  0  0  0  0  0  0  0  0  0
    4.8964    1.9954    1.0810 C   0  0  0  0  0  0  0  0  0  0  0  0
    3.5523    2.6369    0.6767 C   0  0  0  0  0  0  0  0  0  0  0  0
    4.7988    6.1841    0.0205 O   0  0  0  0  0  0  0  0  0  0  0  0
    4.9872    0.9115    1.7981 O   0  0  0  0  0  0  0  0  0  0  0  0
    2.2123    0.4559    1.0030 N   0  0  0  0  0  0  0  0  0  0  0  0
    0.0000    2.0091    0.4166 H   0  0  0  0  0  0  0  0  0  0  0  0
    0.0188    4.5077   -0.2751 H   0  0  0  0  0  0  0  0  0  0  0  0
    2.2786    5.8308   -0.3911 H   0  0  0  0  0  0  0  0  0  0  0  0
    7.3634    5.8675   -0.6135 H   0  0  0  0  0  0  0  0  0  0  0  0
    9.6297    4.5404   -0.6231 H   0  0  0  0  0  0  0  0  0  0  0  0
    9.6835    2.0455    0.1705 H   0  0  0  0  0  0  0  0  0  0  0  0
    7.4755    0.8799    0.9780 H   0  0  0  0  0  0  0  0  0  0  0  0
    3.0364    0.0000    1.4497 H   0  0  0  0  0  0  0  0  0  0  0  0
    1.2810    0.0621    1.2430 H   0  0  0  0  0  0  0  0  0  0  0  0
  1  2  2  0  0  0  0
  1  3  1  0  0  0  0
  1 18  1  0  0  0  0
  2 14  1  0  0  0  0
  2 17  1  0  0  0  0
  3  4  2  0  0  0  0
  3 19  1  0  0  0  0
  4  5  1  0  0  0  0
  4 20  1  0  0  0  0
  5  6  1  0  0  0  0
  5 14  2  0  0  0  0
  6  7  1  0  0  0  0
  6 15  2  0  0  0  0
  7  8  2  0  0  0  0
  7 12  1  0  0  0  0
  8  9  1  0  0  0  0
  8 21  1  0  0  0  0
  9 10  2  0  0  0  0
  9 22  1  0  0  0  0
 10 11  1  0  0  0  0
 10 23  1  0  0  0  0
 11 12  2  0  0  0  0
 11 24  1  0  0  0  0
 12 13  1  0  0  0  0
 13 14  1  0  0  0  0
 13 16  2  0  0  0  0
 17 25  1  0  0  0  0
 17 26  1  0  0  0  0
M  END
>  <Formula> (191)
C14H9NO2

>  <Name> (191)
1-AMINO-ANTHRAQUINONE

>  <Compound classification> (191)
Hetero

>  <Microorganism> (191)
Trichophyton quinckeanum

>  <Publication strain name> (191)
Achorion quinckeanum

>  <Microorganism classification> (191)
fungi

>  <MIC> (191)
200

>  <Method abbreviation> (191)
SDT

>  <Ref-Nr> (191)
6409

>  <Marker> (191)
0

>  <Method> (191)
Serial dilution test; Inoculum size: 1 drop of 10 day culture; Medium: mash broth; pH: 6.0-6.2; Incubation-temperature: 30 degrees Centigrade; Incubation-time: 5 or 10d; Solubility enhancer: ethanol

>  <Reference> (191)
Zsolnai, T.: Versuche zur Entdeckung neuer Fungistatika. V.; Biochemical Pharmacology 11, 514-34 (1962)

>  <mol_id> (191)
2552

>  <MolWeight> (191)
223.23

>  <Nickname> (191)
1-Amino-9,10-anthrachinone

$$$$

csChmFindW11180110282D

 26 28  0  0  0  0  0  0  0  0999 V2000
    1.0004    2.5832    0.3748 C   0  0  0  0  0  0  0  0  0  0  0  0
    2.2722    1.8713    0.7204 C   0  0  0  0  0  0  0  0  0  0  0  0
    1.0085    3.9742   -0.0146 C   0  0  0  0  0  0  0  0  0  0  0  0
    2.2708    4.7184   -0.0811 C   0  0  0  0  0  0  0  0  0  0  0  0
    3.5242    4.0539    0.2531 C   0  0  0  0  0  0  0  0  0  0  0  0
    4.8286    4.8917    0.1422 C   0  0  0  0  0  0  0  0  0  0  0  0
    6.1610    4.1073    0.1542 C   0  0  0  0  0  0  0  0  0  0  0  0
    7.3990    4.7628   -0.2778 C   0  0  0  0  0  0  0  0  0  0  0  0
    8.6595    4.0219   -0.2768 C   0  0  0  0  0  0  0  0  0  0  0  0
    8.6893    2.6302    0.1661 C   0  0  0  0  0  0  0  0  0  0  0  0
    7.4600    1.9750    0.6106 C   0  0  0  0  0  0  0  0  0  0  0  0
    6.1898    2.7076    0.6013 C   0  0  0  0  0  0  0  0  0  0  0  0
    4.8964    1.9954    1.0810 C   0  0  0  0  0  0  0  0  0  0  0  0
    3.5523    2.6369    0.6767 C   0  0  0  0  0  0  0  0  0  0  0  0
    4.7988    6.1841    0.0205 O   0  0  0  0  0  0  0  0  0  0  0  0
    4.9872    0.9115    1.7981 O   0  0  0  0  0  0  0  0  0  0  0  0
    2.2123    0.4559    1.0030 N   0  0  0  0  0  0  0  0  0  0  0  0
    0.0000    2.0091    0.4166 H   0  0  0  0  0  0  0  0  0  0  0  0
    0.0188    4.5077   -0.2751 H   0  0  0  0  0  0  0  0  0  0  0  0
    2.2786    5.8308   -0.3911 H   0  0  0  0  0  0  0  0  0  0  0  0
    7.3634    5.8675   -0.6135 H   0  0  0  0  0  0  0  0  0  0  0  0
    9.6297    4.5404   -0.6231 H   0  0  0  0  0  0  0  0  0  0  0  0
    9.6835    2.0455    0.1705 H   0  0  0  0  0  0  0  0  0  0  0  0
    7.4755    0.8799    0.9780 H   0  0  0  0  0  0  0  0  0  0  0  0
    3.0364    0.0000    1.4497 H   0  0  0  0  0  0  0  0  0  0  0  0
    1.2810    0.0621    1.2430 H   0  0  0  0  0  0  0  0  0  0  0  0
  1  2  2  0  0  0  0
  1  3  1  0  0  0  0
  1 18  1  0  0  0  0
  2 14  1  0  0  0  0
  2 17  1  0  0  0  0
  3  4  2  0  0  0  0
  3 19  1  0  0  0  0
  4  5  1  0  0  0  0
  4 20  1  0  0  0  0
  5  6  1  0  0  0  0
  5 14  2  0  0  0  0
  6  7  1  0  0  0  0
  6 15  2  0  0  0  0
  7  8  2  0  0  0  0
  7 12  1  0  0  0  0
  8  9  1  0  0  0  0
  8 21  1  0  0  0  0
  9 10  2  0  0  0  0
  9 22  1  0  0  0  0
 10 11  1  0  0  0  0
 10 23  1  0  0  0  0
 11 12  2  0  0  0  0
 11 24  1  0  0  0  0
 12 13  1  0  0  0  0
 13 14  1  0  0  0  0
 13 16  2  0  0  0  0
 17 25  1  0  0  0  0
 17 26  1  0  0  0  0
M  END
>  <Formula> (192)
C14H9NO2

>  <Name> (192)
1-AMINO-ANTHRAQUINONE

>  <Compound classification> (192)
Hetero

>  <Microorganism> (192)
Trichothecium roseum

>  <Microorganism classification> (192)
fungi

>  <NIC> (192)
200

>  <Method abbreviation> (192)
SDT

>  <Ref-Nr> (192)
6409

>  <Marker> (192)
0

>  <Method> (192)
Serial dilution test; Inoculum size: 1 drop of 10 day culture; Medium: mash broth; pH: 6.0-6.2; Incubation-temperature: 30 degrees Centigrade; Incubation-time: 5 or 10d; Solubility enhancer: ethanol

>  <Reference> (192)
Zsolnai, T.: Versuche zur Entdeckung neuer Fungistatika. V.; Biochemical Pharmacology 11, 514-34 (1962)

>  <mol_id> (192)
2552

>  <MolWeight> (192)
223.23

>  <Nickname> (192)
1-Amino-9,10-anthrachinone

$$$$

csChmFindW11180110282D

 26 28  0  0  0  0  0  0  0  0999 V2000
    1.0004    2.5832    0.3748 C   0  0  0  0  0  0  0  0  0  0  0  0
    2.2722    1.8713    0.7204 C   0  0  0  0  0  0  0  0  0  0  0  0
    1.0085    3.9742   -0.0146 C   0  0  0  0  0  0  0  0  0  0  0  0
    2.2708    4.7184   -0.0811 C   0  0  0  0  0  0  0  0  0  0  0  0
    3.5242    4.0539    0.2531 C   0  0  0  0  0  0  0  0  0  0  0  0
    4.8286    4.8917    0.1422 C   0  0  0  0  0  0  0  0  0  0  0  0
    6.1610    4.1073    0.1542 C   0  0  0  0  0  0  0  0  0  0  0  0
    7.3990    4.7628   -0.2778 C   0  0  0  0  0  0  0  0  0  0  0  0
    8.6595    4.0219   -0.2768 C   0  0  0  0  0  0  0  0  0  0  0  0
    8.6893    2.6302    0.1661 C   0  0  0  0  0  0  0  0  0  0  0  0
    7.4600    1.9750    0.6106 C   0  0  0  0  0  0  0  0  0  0  0  0
    6.1898    2.7076    0.6013 C   0  0  0  0  0  0  0  0  0  0  0  0
    4.8964    1.9954    1.0810 C   0  0  0  0  0  0  0  0  0  0  0  0
    3.5523    2.6369    0.6767 C   0  0  0  0  0  0  0  0  0  0  0  0
    4.7988    6.1841    0.0205 O   0  0  0  0  0  0  0  0  0  0  0  0
    4.9872    0.9115    1.7981 O   0  0  0  0  0  0  0  0  0  0  0  0
    2.2123    0.4559    1.0030 N   0  0  0  0  0  0  0  0  0  0  0  0
    0.0000    2.0091    0.4166 H   0  0  0  0  0  0  0  0  0  0  0  0
    0.0188    4.5077   -0.2751 H   0  0  0  0  0  0  0  0  0  0  0  0
    2.2786    5.8308   -0.3911 H   0  0  0  0  0  0  0  0  0  0  0  0
    7.3634    5.8675   -0.6135 H   0  0  0  0  0  0  0  0  0  0  0  0
    9.6297    4.5404   -0.6231 H   0  0  0  0  0  0  0  0  0  0  0  0
    9.6835    2.0455    0.1705 H   0  0  0  0  0  0  0  0  0  0  0  0
    7.4755    0.8799    0.9780 H   0  0  0  0  0  0  0  0  0  0  0  0
    3.0364    0.0000    1.4497 H   0  0  0  0  0  0  0  0  0  0  0  0
    1.2810    0.0621    1.2430 H   0  0  0  0  0  0  0  0  0  0  0  0
  1  2  2  0  0  0  0
  1  3  1  0  0  0  0
  1 18  1  0  0  0  0
  2 14  1  0  0  0  0
  2 17  1  0  0  0  0
  3  4  2  0  0  0  0
  3 19  1  0  0  0  0
  4  5  1  0  0  0  0
  4 20  1  0  0  0  0
  5  6  1  0  0  0  0
  5 14  2  0  0  0  0
  6  7  1  0  0  0  0
  6 15  2  0  0  0  0
  7  8  2  0  0  0  0
  7 12  1  0  0  0  0
  8  9  1  0  0  0  0
  8 21  1  0  0  0  0
  9 10  2  0  0  0  0
  9 22  1  0  0  0  0
 10 11  1  0  0  0  0
 10 23  1  0  0  0  0
 11 12  2  0  0  0  0
 11 24  1  0  0  0  0
 12 13  1  0  0  0  0
 13 14  1  0  0  0  0
 13 16  2  0  0  0  0
 17 25  1  0  0  0  0
 17 26  1  0  0  0  0
M  END
>  <Formula> (193)
C14H9NO2

>  <Name> (193)
1-AMINO-ANTHRAQUINONE

>  <Compound classification> (193)
Hetero

>  <Microorganism> (193)
Candida albicans

>  <Microorganism classification> (193)
yeast

>  <NIC> (193)
200

>  <Method abbreviation> (193)
SDT

>  <Ref-Nr> (193)
6409

>  <Marker> (193)
0

>  <Method> (193)
Serial dilution test; Inoculum size: 1 drop of 10 day culture; Medium: mash broth; pH: 6.0-6.2; Incubation-temperature: 30 degrees Centigrade; Incubation-time: 5 or 10d; Solubility enhancer: ethanol

>  <Reference> (193)
Zsolnai, T.: Versuche zur Entdeckung neuer Fungistatika. V.; Biochemical Pharmacology 11, 514-34 (1962)

>  <mol_id> (193)
2552

>  <MolWeight> (193)
223.23

>  <Nickname> (193)
1-Amino-9,10-anthrachinone

$$$$

csChmFindW11180110282D

 26 28  0  0  0  0  0  0  0  0999 V2000
    1.9334    2.6956    1.7915 C   0  0  0  0  0  0  0  0  0  0  0  0
    3.1832    1.8880    1.6458 C   0  0  0  0  0  0  0  0  0  0  0  0
    1.9422    4.1203    1.5238 C   0  0  0  0  0  0  0  0  0  0  0  0
    3.1850    4.7649    1.1092 C   0  0  0  0  0  0  0  0  0  0  0  0
    4.4097    3.9974    0.9617 C   0  0  0  0  0  0  0  0  0  0  0  0
    5.6777    4.7587    0.5190 C   0  0  0  0  0  0  0  0  0  0  0  0
    6.9762    3.9442    0.3574 C   0  0  0  0  0  0  0  0  0  0  0  0
    8.1991    4.6245   -0.0644 C   0  0  0  0  0  0  0  0  0  0  0  0
    9.4383    3.8755   -0.2242 C   0  0  0  0  0  0  0  0  0  0  0  0
    9.4619    2.4438    0.0370 C   0  0  0  0  0  0  0  0  0  0  0  0
    8.2473    1.7590    0.4580 C   0  0  0  0  0  0  0  0  0  0  0  0
    6.9987    2.5035    0.6205 C   0  0  0  0  0  0  0  0  0  0  0  0
    5.7326    1.7443    1.0678 C   0  0  0  0  0  0  0  0  0  0  0  0
    4.4271    2.5426    1.2286 C   0  0  0  0  0  0  0  0  0  0  0  0
    5.6518    6.0337    0.2916 O   0  0  0  0  0  0  0  0  0  0  0  0
    5.7888    0.4663    1.2969 O   0  0  0  0  0  0  0  0  0  0  0  0
    3.0055    0.5081    1.9452 O   0  0  0  0  0  0  0  0  0  0  0  0
    0.7666    1.9729    2.2028 O   0  0  0  0  0  0  0  0  0  0  0  0
    0.9813    4.7399    1.6363 H   0  0  0  0  0  0  0  0  0  0  0  0
    3.1984    5.8972    0.8954 H   0  0  0  0  0  0  0  0  0  0  0  0
    8.1669    5.7578   -0.2676 H   0  0  0  0  0  0  0  0  0  0  0  0
   10.3955    4.4182   -0.5564 H   0  0  0  0  0  0  0  0  0  0  0  0
   10.4380    1.8500   -0.0879 H   0  0  0  0  0  0  0  0  0  0  0  0
    8.2558    0.6264    0.6673 H   0  0  0  0  0  0  0  0  0  0  0  0
    3.8767    0.0000    1.8346 H   0  0  0  0  0  0  0  0  0  0  0  0
    0.0000    2.6320    2.2616 H   0  0  0  0  0  0  0  0  0  0  0  0
  1  2  2  0  0  0  0
  1  3  1  0  0  0  0
  1 18  1  0  0  0  0
  2 14  1  0  0  0  0
  2 17  1  0  0  0  0
  3  4  2  0  0  0  0
  3 19  1  0  0  0  0
  4  5  1  0  0  0  0
  4 20  1  0  0  0  0
  5  6  1  0  0  0  0
  5 14  2  0  0  0  0
  6  7  1  0  0  0  0
  6 15  2  0  0  0  0
  7  8  2  0  0  0  0
  7 12  1  0  0  0  0
  8  9  1  0  0  0  0
  8 21  1  0  0  0  0
  9 10  2  0  0  0  0
  9 22  1  0  0  0  0
 10 11  1  0  0  0  0
 10 23  1  0  0  0  0
 11 12  2  0  0  0  0
 11 24  1  0  0  0  0
 12 13  1  0  0  0  0
 13 14  1  0  0  0  0
 13 16  2  0  0  0  0
 17 25  1  0  0  0  0
 18 26  1  0  0  0  0
M  END
>  <Formula> (194)
C14H8O4

>  <Name> (194)
1,2-DIHYDROXY-ANTHRAQUINONE

>  <CAS-Nr> (194)
72-48-0

>  <EINECS> (194)
200-782-5

>  <Compound classification> (194)
Ar-OH

>  <Microorganism> (194)
Aspergillus niger

>  <Microorganism classification> (194)
fungi

>  <NIC> (194)
200

>  <Method abbreviation> (194)
SDT

>  <Ref-Nr> (194)
6409

>  <Marker> (194)
0

>  <Method> (194)
Serial dilution test; Inoculum size: 1 drop of 10 day culture; Medium: mash broth; pH: 6.0-6.2; Incubation-temperature: 30 degrees Centigrade; Incubation-time: 5 or 10d; Solubility enhancer: ethanol

>  <Reference> (194)
Zsolnai, T.: Versuche zur Entdeckung neuer Fungistatika. V.; Biochemical Pharmacology 11, 514-34 (1962)

>  <mol_id> (194)
2553

>  <MolWeight> (194)
240.21

>  <Nickname> (194)
Alizarin

$$$$

csChmFindW11180110282D

 26 28  0  0  0  0  0  0  0  0999 V2000
    1.9334    2.6956    1.7915 C   0  0  0  0  0  0  0  0  0  0  0  0
    3.1832    1.8880    1.6458 C   0  0  0  0  0  0  0  0  0  0  0  0
    1.9422    4.1203    1.5238 C   0  0  0  0  0  0  0  0  0  0  0  0
    3.1850    4.7649    1.1092 C   0  0  0  0  0  0  0  0  0  0  0  0
    4.4097    3.9974    0.9617 C   0  0  0  0  0  0  0  0  0  0  0  0
    5.6777    4.7587    0.5190 C   0  0  0  0  0  0  0  0  0  0  0  0
    6.9762    3.9442    0.3574 C   0  0  0  0  0  0  0  0  0  0  0  0
    8.1991    4.6245   -0.0644 C   0  0  0  0  0  0  0  0  0  0  0  0
    9.4383    3.8755   -0.2242 C   0  0  0  0  0  0  0  0  0  0  0  0
    9.4619    2.4438    0.0370 C   0  0  0  0  0  0  0  0  0  0  0  0
    8.2473    1.7590    0.4580 C   0  0  0  0  0  0  0  0  0  0  0  0
    6.9987    2.5035    0.6205 C   0  0  0  0  0  0  0  0  0  0  0  0
    5.7326    1.7443    1.0678 C   0  0  0  0  0  0  0  0  0  0  0  0
    4.4271    2.5426    1.2286 C   0  0  0  0  0  0  0  0  0  0  0  0
    5.6518    6.0337    0.2916 O   0  0  0  0  0  0  0  0  0  0  0  0
    5.7888    0.4663    1.2969 O   0  0  0  0  0  0  0  0  0  0  0  0
    3.0055    0.5081    1.9452 O   0  0  0  0  0  0  0  0  0  0  0  0
    0.7666    1.9729    2.2028 O   0  0  0  0  0  0  0  0  0  0  0  0
    0.9813    4.7399    1.6363 H   0  0  0  0  0  0  0  0  0  0  0  0
    3.1984    5.8972    0.8954 H   0  0  0  0  0  0  0  0  0  0  0  0
    8.1669    5.7578   -0.2676 H   0  0  0  0  0  0  0  0  0  0  0  0
   10.3955    4.4182   -0.5564 H   0  0  0  0  0  0  0  0  0  0  0  0
   10.4380    1.8500   -0.0879 H   0  0  0  0  0  0  0  0  0  0  0  0
    8.2558    0.6264    0.6673 H   0  0  0  0  0  0  0  0  0  0  0  0
    3.8767    0.0000    1.8346 H   0  0  0  0  0  0  0  0  0  0  0  0
    0.0000    2.6320    2.2616 H   0  0  0  0  0  0  0  0  0  0  0  0
  1  2  2  0  0  0  0
  1  3  1  0  0  0  0
  1 18  1  0  0  0  0
  2 14  1  0  0  0  0
  2 17  1  0  0  0  0
  3  4  2  0  0  0  0
  3 19  1  0  0  0  0
  4  5  1  0  0  0  0
  4 20  1  0  0  0  0
  5  6  1  0  0  0  0
  5 14  2  0  0  0  0
  6  7  1  0  0  0  0
  6 15  2  0  0  0  0
  7  8  2  0  0  0  0
  7 12  1  0  0  0  0
  8  9  1  0  0  0  0
  8 21  1  0  0  0  0
  9 10  2  0  0  0  0
  9 22  1  0  0  0  0
 10 11  1  0  0  0  0
 10 23  1  0  0  0  0
 11 12  2  0  0  0  0
 11 24  1  0  0  0  0
 12 13  1  0  0  0  0
 13 14  1  0  0  0  0
 13 16  2  0  0  0  0
 17 25  1  0  0  0  0
 18 26  1  0  0  0  0
M  END
>  <Formula> (195)
C14H8O4

>  <Name> (195)
1,2-DIHYDROXY-ANTHRAQUINONE

>  <CAS-Nr> (195)
72-48-0

>  <EINECS> (195)
200-782-5

>  <Compound classification> (195)
Ar-OH

>  <Microorganism> (195)
Epidermophyton Kaufman-Wolff

>  <Microorganism classification> (195)
fungi

>  <MIC> (195)
100

>  <Method abbreviation> (195)
SDT

>  <Ref-Nr> (195)
6409

>  <Marker> (195)
0

>  <Method> (195)
Serial dilution test; Inoculum size: 1 drop of 10 day culture; Medium: mash broth; pH: 6.0-6.2; Incubation-temperature: 30 degrees Centigrade; Incubation-time: 5 or 10d; Solubility enhancer: ethanol

>  <Reference> (195)
Zsolnai, T.: Versuche zur Entdeckung neuer Fungistatika. V.; Biochemical Pharmacology 11, 514-34 (1962)

>  <mol_id> (195)
2553

>  <MolWeight> (195)
240.21

>  <Nickname> (195)
Alizarin

$$$$

csChmFindW11180110282D

 26 28  0  0  0  0  0  0  0  0999 V2000
    1.9334    2.6956    1.7915 C   0  0  0  0  0  0  0  0  0  0  0  0
    3.1832    1.8880    1.6458 C   0  0  0  0  0  0  0  0  0  0  0  0
    1.9422    4.1203    1.5238 C   0  0  0  0  0  0  0  0  0  0  0  0
    3.1850    4.7649    1.1092 C   0  0  0  0  0  0  0  0  0  0  0  0
    4.4097    3.9974    0.9617 C   0  0  0  0  0  0  0  0  0  0  0  0
    5.6777    4.7587    0.5190 C   0  0  0  0  0  0  0  0  0  0  0  0
    6.9762    3.9442    0.3574 C   0  0  0  0  0  0  0  0  0  0  0  0
    8.1991    4.6245   -0.0644 C   0  0  0  0  0  0  0  0  0  0  0  0
    9.4383    3.8755   -0.2242 C   0  0  0  0  0  0  0  0  0  0  0  0
    9.4619    2.4438    0.0370 C   0  0  0  0  0  0  0  0  0  0  0  0
    8.2473    1.7590    0.4580 C   0  0  0  0  0  0  0  0  0  0  0  0
    6.9987    2.5035    0.6205 C   0  0  0  0  0  0  0  0  0  0  0  0
    5.7326    1.7443    1.0678 C   0  0  0  0  0  0  0  0  0  0  0  0
    4.4271    2.5426    1.2286 C   0  0  0  0  0  0  0  0  0  0  0  0
    5.6518    6.0337    0.2916 O   0  0  0  0  0  0  0  0  0  0  0  0
    5.7888    0.4663    1.2969 O   0  0  0  0  0  0  0  0  0  0  0  0
    3.0055    0.5081    1.9452 O   0  0  0  0  0  0  0  0  0  0  0  0
    0.7666    1.9729    2.2028 O   0  0  0  0  0  0  0  0  0  0  0  0
    0.9813    4.7399    1.6363 H   0  0  0  0  0  0  0  0  0  0  0  0
    3.1984    5.8972    0.8954 H   0  0  0  0  0  0  0  0  0  0  0  0
    8.1669    5.7578   -0.2676 H   0  0  0  0  0  0  0  0  0  0  0  0
   10.3955    4.4182   -0.5564 H   0  0  0  0  0  0  0  0  0  0  0  0
   10.4380    1.8500   -0.0879 H   0  0  0  0  0  0  0  0  0  0  0  0
    8.2558    0.6264    0.6673 H   0  0  0  0  0  0  0  0  0  0  0  0
    3.8767    0.0000    1.8346 H   0  0  0  0  0  0  0  0  0  0  0  0
    0.0000    2.6320    2.2616 H   0  0  0  0  0  0  0  0  0  0  0  0
  1  2  2  0  0  0  0
  1  3  1  0  0  0  0
  1 18  1  0  0  0  0
  2 14  1  0  0  0  0
  2 17  1  0  0  0  0
  3  4  2  0  0  0  0
  3 19  1  0  0  0  0
  4  5  1  0  0  0  0
  4 20  1  0  0  0  0
  5  6  1  0  0  0  0
  5 14  2  0  0  0  0
  6  7  1  0  0  0  0
  6 15  2  0  0  0  0
  7  8  2  0  0  0  0
  7 12  1  0  0  0  0
  8  9  1  0  0  0  0
  8 21  1  0  0  0  0
  9 10  2  0  0  0  0
  9 22  1  0  0  0  0
 10 11  1  0  0  0  0
 10 23  1  0  0  0  0
 11 12  2  0  0  0  0
 11 24  1  0  0  0  0
 12 13  1  0  0  0  0
 13 14  1  0  0  0  0
 13 16  2  0  0  0  0
 17 25  1  0  0  0  0
 18 26  1  0  0  0  0
M  END
>  <Formula> (196)
C14H8O4

>  <Name> (196)
1,2-DIHYDROXY-ANTHRAQUINONE

>  <CAS-Nr> (196)
72-48-0

>  <EINECS> (196)
200-782-5

>  <Compound classification> (196)
Ar-OH

>  <Microorganism> (196)
Penicillium simplicissimum

>  <Microorganism classification> (196)
fungi

>  <NIC> (196)
200

>  <Method abbreviation> (196)
SDT

>  <Ref-Nr> (196)
6409

>  <Marker> (196)
0

>  <Method> (196)
Serial dilution test; Inoculum size: 1 drop of 10 day culture; Medium: mash broth; pH: 6.0-6.2; Incubation-temperature: 30 degrees Centigrade; Incubation-time: 5 or 10d; Solubility enhancer: ethanol

>  <Reference> (196)
Zsolnai, T.: Versuche zur Entdeckung neuer Fungistatika. V.; Biochemical Pharmacology 11, 514-34 (1962)

>  <mol_id> (196)
2553

>  <MolWeight> (196)
240.21

>  <Nickname> (196)
Alizarin

$$$$

csChmFindW11180110282D

 34 33  0  0  0  0  0  0  0  0999 V2000
    7.1864    2.8461   -0.6484 C   0  0  0  0  0  0  0  0  0  0  0  0
    9.0219    3.6574   -0.5138 C   0  0  0  0  0  0  0  0  0  0  0  0
    5.8665    4.0473   -1.5122 C   0  0  0  0  0  0  0  0  0  0  0  0
   10.3096    2.4445    0.3450 C   0  0  0  0  0  0  0  0  0  0  0  0
    9.6995    4.2033   -2.3099 C   0  0  0  0  0  0  0  0  0  0  0  0
    8.7513    5.1844    0.5876 O   0  0  0  0  0  0  0  0  0  0  0  0
    4.0795    3.2923   -1.4907 C   0  0  0  0  0  0  0  0  0  0  0  0
    9.9904    0.8127    0.8593 C   0  0  0  0  0  0  0  0  0  0  0  0
   10.0941    6.2928    0.9756 C   0  0  0  0  0  0  0  0  0  0  0  0
    2.7249    3.9837   -2.3730 C   0  0  0  0  0  0  0  0  0  0  0  0
    9.5259    7.7475    2.1518 C   0  0  0  0  0  0  0  0  0  0  0  0
   11.5701    6.0399    0.3738 O   0  0  0  0  0  0  0  0  0  0  0  0
    0.9526    3.1941   -2.3103 C   0  0  0  0  0  0  0  0  0  0  0  0
    2.9075    5.5734   -3.4726 C   0  0  0  0  0  0  0  0  0  0  0  0
    7.3018    1.6018   -1.4184 H   0  0  0  0  0  0  0  0  0  0  0  0
    6.7265    2.5100    0.7052 H   0  0  0  0  0  0  0  0  0  0  0  0
    5.8602    5.3446   -0.8130 H   0  0  0  0  0  0  0  0  0  0  0  0
    6.2716    4.3146   -2.9029 H   0  0  0  0  0  0  0  0  0  0  0  0
   11.6203    3.0354    0.5152 H   0  0  0  0  0  0  0  0  0  0  0  0
   11.1251    4.5247   -2.2440 H   0  0  0  0  0  0  0  0  0  0  0  0
    9.4979    3.1136   -3.2610 H   0  0  0  0  0  0  0  0  0  0  0  0
    8.9781    5.3862   -2.7751 H   0  0  0  0  0  0  0  0  0  0  0  0
    3.9000    2.1068   -0.6876 H   0  0  0  0  0  0  0  0  0  0  0  0
   11.0161    0.0000    1.4579 H   0  0  0  0  0  0  0  0  0  0  0  0
    8.7144    0.1638    0.7301 H   0  0  0  0  0  0  0  0  0  0  0  0
    9.9295    9.0218    1.5578 H   0  0  0  0  0  0  0  0  0  0  0  0
    8.0774    7.7322    2.3464 H   0  0  0  0  0  0  0  0  0  0  0  0
   10.1906    7.5895    3.4458 H   0  0  0  0  0  0  0  0  0  0  0  0
    0.5016    2.8643   -3.6644 H   0  0  0  0  0  0  0  0  0  0  0  0
    0.9319    1.9723   -1.5058 H   0  0  0  0  0  0  0  0  0  0  0  0
    0.0000    4.1450   -1.7314 H   0  0  0  0  0  0  0  0  0  0  0  0
    1.6022    6.0795   -3.8962 H   0  0  0  0  0  0  0  0  0  0  0  0
    3.5997    6.6329   -2.7337 H   0  0  0  0  0  0  0  0  0  0  0  0
    3.6965    5.2696   -4.6702 H   0  0  0  0  0  0  0  0  0  0  0  0
  1  2  1  0  0  0  0
  1  3  1  0  0  0  0
  1 15  1  6  0  0  0
  1 16  1  1  0  0  0
  2  4  1  0  0  0  0
  2  5  1  6  0  0  0
  2  6  1  1  0  0  0
  3  7  1  0  0  0  0
  3 17  1  1  0  0  0
  3 18  1  6  0  0  0
  4  8  2  0  0  0  0
  4 19  1  0  0  0  0
  5 20  1  0  0  0  0
  5 21  1  6  0  0  0
  5 22  1  0  0  0  0
  6  9  1  0  0  0  0
  7 10  2  0  0  0  0
  7 23  1  1  0  0  0
  8 24  1  0  0  0  0
  8 25  1  0  0  0  0
  9 11  1  1  0  0  0
  9 12  2  0  0  0  0
 10 13  1  0  0  0  0
 10 14  1  6  0  0  0
 11 26  1  0  0  0  0
 11 27  1  0  0  0  0
 11 28  1  1  0  0  0
 13 29  1  6  0  0  0
 13 30  1  1  0  0  0
 13 31  1  0  0  0  0
 14 32  1  0  0  0  0
 14 33  1  1  0  0  0
 14 34  1  6  0  0  0
M  END
>  <Formula> (197)
C12H20O2

>  <Name> (197)
3,7-DIMETHYL-1,6-OCTADIEN-3-OL, ACETATE

>  <CAS-Nr> (197)
115-95-7

>  <EINECS> (197)
204-116-4, 254-806-4

>  <21 CFR> (197)
182.60, 582.60

>  <LD50-rat-oral> (197)
13934

>  <Compound classification> (197)
Monoterpene

>  <Microorganism> (197)
Saccharomyces cerevisiae

>  <Microorganism classification> (197)
yeast

>  <NIC> (197)
10000

>  <Method abbreviation> (197)
SDT

>  <Ref-Nr> (197)
6443

>  <Marker> (197)
0

>  <Method> (197)
Serial dilution test; Inoculum size: ---; Medium: ---; pH: 7.0; Incubation-temperature: -- degrees Centigrade; Incubation-time: ---; Solubility enhancer: ---; method in Japanese - not translated

>  <Reference> (197)
Ueda, S., Yamashita, H., Nakashima, M., Kuwabara, Y.: Inhibition of Microoranisms by Spice Extracts and Flavoring Compounds; Nihon Shokuhin Kogyo Gakkai-shi 29, 111-6 (1982)

>  <mol_id> (197)
269

>  <LD50-mouse-oral> (197)
12000

>  <MolWeight> (197)
196.28

>  <Nickname> (197)
Linalyl acetate

>  <other Names> (197)
Bergamol

$$$$

csChmFindW11180110282D

 16 15  0  0  0  0  0  0  0  0999 V2000
    6.1027    3.0562    0.0279 C   0  0  0  0  0  0  0  0  0  0  0  0
    4.5092    2.1912    0.0271 C   0  0  0  0  0  0  0  0  0  0  0  0
    7.5772    2.2467    0.0190 C   0  0  0  0  0  0  0  0  0  0  0  0
    3.0341    3.0022    0.0360 C   0  0  0  0  0  0  0  0  0  0  0  0
    9.2077    3.1183    0.0168 C   0  0  0  0  0  0  0  0  0  0  0  0
    1.4142    2.1499    0.0353 C   0  0  0  0  0  0  0  0  0  0  0  0
    0.0000    2.7838    0.0460 O   0  0  0  0  0  0  0  0  0  0  0  0
    1.4690    0.4367    0.0213 O   0  0  0  0  0  0  0  0  0  0  0  0
    6.0552    4.4386    0.0365 H   0  0  0  0  0  0  0  0  0  0  0  0
    4.5470    0.8050    0.0185 H   0  0  0  0  0  0  0  0  0  0  0  0
    7.6265    0.8648    0.0105 H   0  0  0  0  0  0  0  0  0  0  0  0
    2.9370    4.3803    0.0447 H   0  0  0  0  0  0  0  0  0  0  0  0
   10.2671    2.2031    0.0397 H   0  0  0  0  0  0  0  0  0  0  0  0
    9.3236    3.9541    1.1372 H   0  0  0  0  0  0  0  0  0  0  0  0
    9.3389    3.9139   -1.1311 H   0  0  0  0  0  0  0  0  0  0  0  0
    0.3331    0.0000    0.0221 H   0  0  0  0  0  0  0  0  0  0  0  0
  1  2  1  0  0  0  0
  1  3  2  0  0  0  0
  1  9  1  0  0  0  0
  2  4  2  0  0  0  0
  2 10  1  0  0  0  0
  3  5  1  0  0  0  0
  3 11  1  0  0  0  0
  4  6  1  0  0  0  0
  4 12  1  0  0  0  0
  5 13  1  0  0  0  0
  5 14  1  1  0  0  0
  5 15  1  6  0  0  0
  6  7  2  0  0  0  0
  6  8  1  0  0  0  0
  8 16  1  0  0  0  0
M  END
>  <Formula> (198)
C6H8O2

>  <Name> (198)
(E,E)-2,4-HEXADIENOIC ACID

>  <CAS-Nr> (198)
110-44-1

>  <EINECS> (198)
203-768-7

>  <21 CFR> (198)
133.118, 150.161, 182.3089, 150.141, 166.110, 177.2260, 133.123, 133.124, 133.169, 133.173, 133.179, 133.187, 133.188, 172.872, 181.23

>  <LD50-rat-oral> (198)
7360

>  <Compound classification> (198)
Ali-COOH

>  <Microorganism> (198)
Aspergillus niger

>  <Microorganism classification> (198)
fungi

>  <MIC> (198)
1250

>  <Method abbreviation> (198)
SDT

>  <Ref-Nr> (198)
6446

>  <Marker> (198)
0

>  <Method> (198)
Serial dilution test; method in Russian - not translated

>  <Reference> (198)
Rifman, J.Y.: Fungizide und fungistatische Wirkung der Sorbinsaeure; Tovarovedenie 3, 62-5 (1968)

>  <mol_id> (198)
203

>  <LD50-mouse-oral> (198)
3200

>  <LD50-mou-ip> (198)
2820

>  <MolWeight> (198)
112.12

>  <Nickname> (198)
Sorbic acid

$$$$

csChmFindW11180110282D

 16 15  0  0  0  0  0  0  0  0999 V2000
    6.1027    3.0562    0.0279 C   0  0  0  0  0  0  0  0  0  0  0  0
    4.5092    2.1912    0.0271 C   0  0  0  0  0  0  0  0  0  0  0  0
    7.5772    2.2467    0.0190 C   0  0  0  0  0  0  0  0  0  0  0  0
    3.0341    3.0022    0.0360 C   0  0  0  0  0  0  0  0  0  0  0  0
    9.2077    3.1183    0.0168 C   0  0  0  0  0  0  0  0  0  0  0  0
    1.4142    2.1499    0.0353 C   0  0  0  0  0  0  0  0  0  0  0  0
    0.0000    2.7838    0.0460 O   0  0  0  0  0  0  0  0  0  0  0  0
    1.4690    0.4367    0.0213 O   0  0  0  0  0  0  0  0  0  0  0  0
    6.0552    4.4386    0.0365 H   0  0  0  0  0  0  0  0  0  0  0  0
    4.5470    0.8050    0.0185 H   0  0  0  0  0  0  0  0  0  0  0  0
    7.6265    0.8648    0.0105 H   0  0  0  0  0  0  0  0  0  0  0  0
    2.9370    4.3803    0.0447 H   0  0  0  0  0  0  0  0  0  0  0  0
   10.2671    2.2031    0.0397 H   0  0  0  0  0  0  0  0  0  0  0  0
    9.3236    3.9541    1.1372 H   0  0  0  0  0  0  0  0  0  0  0  0
    9.3389    3.9139   -1.1311 H   0  0  0  0  0  0  0  0  0  0  0  0
    0.3331    0.0000    0.0221 H   0  0  0  0  0  0  0  0  0  0  0  0
  1  2  1  0  0  0  0
  1  3  2  0  0  0  0
  1  9  1  0  0  0  0
  2  4  2  0  0  0  0
  2 10  1  0  0  0  0
  3  5  1  0  0  0  0
  3 11  1  0  0  0  0
  4  6  1  0  0  0  0
  4 12  1  0  0  0  0
  5 13  1  0  0  0  0
  5 14  1  1  0  0  0
  5 15  1  6  0  0  0
  6  7  2  0  0  0  0
  6  8  1  0  0  0  0
  8 16  1  0  0  0  0
M  END
>  <Formula> (199)
C6H8O2

>  <Name> (199)
(E,E)-2,4-HEXADIENOIC ACID

>  <CAS-Nr> (199)
110-44-1

>  <EINECS> (199)
203-768-7

>  <21 CFR> (199)
133.118, 150.161, 182.3089, 150.141, 166.110, 177.2260, 133.123, 133.124, 133.169, 133.173, 133.179, 133.187, 133.188, 172.872, 181.23

>  <LD50-rat-oral> (199)
7360

>  <Compound classification> (199)
Ali-COOH

>  <Microorganism> (199)
Alternaria alternata

>  <Microorganism classification> (199)
fungi

>  <MIC> (199)
2000

>  <Annotation> (199)
No. of strains examined: 1

>  <Method abbreviation> (199)
ADlT

>  <Ref-Nr> (199)
6449

>  <Marker> (199)
0

>  <Method> (199)
Agar dilution test; Inoculum size: cited; Medium: Czapek Solution agar; pH: 5.7; Incubation-temperature: 25 degrees Centigrade; Incubation-time: 7d; Solubility enhancer: ---

>  <Reference> (199)
Sebti, F., Tantaoui-Elaraki, A.: In vitro Inhibition of Fungi Isolated from 'Pastilla' Papers by Organic Acids and Cinnamon; Food Science and Technology/Lebensmittel-Wissenschaft und -Technologie 27, 370-4 (1994)

>  <mol_id> (199)
203

>  <LD50-mouse-oral> (199)
3200

>  <LD50-mou-ip> (199)
2820

>  <MolWeight> (199)
112.12

>  <Nickname> (199)
Sorbic acid

$$$$

csChmFindW11180110282D

 16 15  0  0  0  0  0  0  0  0999 V2000
    6.1027    3.0562    0.0279 C   0  0  0  0  0  0  0  0  0  0  0  0
    4.5092    2.1912    0.0271 C   0  0  0  0  0  0  0  0  0  0  0  0
    7.5772    2.2467    0.0190 C   0  0  0  0  0  0  0  0  0  0  0  0
    3.0341    3.0022    0.0360 C   0  0  0  0  0  0  0  0  0  0  0  0
    9.2077    3.1183    0.0168 C   0  0  0  0  0  0  0  0  0  0  0  0
    1.4142    2.1499    0.0353 C   0  0  0  0  0  0  0  0  0  0  0  0
    0.0000    2.7838    0.0460 O   0  0  0  0  0  0  0  0  0  0  0  0
    1.4690    0.4367    0.0213 O   0  0  0  0  0  0  0  0  0  0  0  0
    6.0552    4.4386    0.0365 H   0  0  0  0  0  0  0  0  0  0  0  0
    4.5470    0.8050    0.0185 H   0  0  0  0  0  0  0  0  0  0  0  0
    7.6265    0.8648    0.0105 H   0  0  0  0  0  0  0  0  0  0  0  0
    2.9370    4.3803    0.0447 H   0  0  0  0  0  0  0  0  0  0  0  0
   10.2671    2.2031    0.0397 H   0  0  0  0  0  0  0  0  0  0  0  0
    9.3236    3.9541    1.1372 H   0  0  0  0  0  0  0  0  0  0  0  0
    9.3389    3.9139   -1.1311 H   0  0  0  0  0  0  0  0  0  0  0  0
    0.3331    0.0000    0.0221 H   0  0  0  0  0  0  0  0  0  0  0  0
  1  2  1  0  0  0  0
  1  3  2  0  0  0  0
  1  9  1  0  0  0  0
  2  4  2  0  0  0  0
  2 10  1  0  0  0  0
  3  5  1  0  0  0  0
  3 11  1  0  0  0  0
  4  6  1  0  0  0  0
  4 12  1  0  0  0  0
  5 13  1  0  0  0  0
  5 14  1  1  0  0  0
  5 15  1  6  0  0  0
  6  7  2  0  0  0  0
  6  8  1  0  0  0  0
  8 16  1  0  0  0  0
M  END
>  <Formula> (200)
C6H8O2

>  <Name> (200)
(E,E)-2,4-HEXADIENOIC ACID

>  <CAS-Nr> (200)
110-44-1

>  <EINECS> (200)
203-768-7

>  <21 CFR> (200)
133.118, 150.161, 182.3089, 150.141, 166.110, 177.2260, 133.123, 133.124, 133.169, 133.173, 133.179, 133.187, 133.188, 172.872, 181.23

>  <LD50-rat-oral> (200)
7360

>  <Compound classification> (200)
Ali-COOH

>  <Microorganism> (200)
Alternaria sp.

>  <Microorganism classification> (200)
fungi

>  <MIC> (200)
400

>  <Annotation> (200)
K-salt

>  <Method abbreviation> (200)
ADlT

>  <Ref-Nr> (200)
6476

>  <Marker> (200)
0

>  <Method> (200)
Agar dilution test; Inoculum size: ---; Medium: plate count agar (bacteria), potato dextrose agar (yeast, molds); pH: 3 to 7, see annotations; Incubation-temperature: 28 degrees Centigrade; Incubation-time: 1-5d; Solubility enhancer: ethanol, acetone

>  <Reference> (200)
Jurd, L., King, A.D., Stanley, W.L.: Cinnamyl Phenol Antimicrobial Agents; US 3,865,748 (1975) and also: US 3,745,222 (1973)

>  <mol_id> (200)
203

>  <LD50-mouse-oral> (200)
3200

>  <LD50-mou-ip> (200)
2820

>  <MolWeight> (200)
112.12

>  <Nickname> (200)
Sorbic acid

$$$$

csChmFindW11180110282D

 16 15  0  0  0  0  0  0  0  0999 V2000
    6.1027    3.0562    0.0279 C   0  0  0  0  0  0  0  0  0  0  0  0
    4.5092    2.1912    0.0271 C   0  0  0  0  0  0  0  0  0  0  0  0
    7.5772    2.2467    0.0190 C   0  0  0  0  0  0  0  0  0  0  0  0
    3.0341    3.0022    0.0360 C   0  0  0  0  0  0  0  0  0  0  0  0
    9.2077    3.1183    0.0168 C   0  0  0  0  0  0  0  0  0  0  0  0
    1.4142    2.1499    0.0353 C   0  0  0  0  0  0  0  0  0  0  0  0
    0.0000    2.7838    0.0460 O   0  0  0  0  0  0  0  0  0  0  0  0
    1.4690    0.4367    0.0213 O   0  0  0  0  0  0  0  0  0  0  0  0
    6.0552    4.4386    0.0365 H   0  0  0  0  0  0  0  0  0  0  0  0
    4.5470    0.8050    0.0185 H   0  0  0  0  0  0  0  0  0  0  0  0
    7.6265    0.8648    0.0105 H   0  0  0  0  0  0  0  0  0  0  0  0
    2.9370    4.3803    0.0447 H   0  0  0  0  0  0  0  0  0  0  0  0
   10.2671    2.2031    0.0397 H   0  0  0  0  0  0  0  0  0  0  0  0
    9.3236    3.9541    1.1372 H   0  0  0  0  0  0  0  0  0  0  0  0
    9.3389    3.9139   -1.1311 H   0  0  0  0  0  0  0  0  0  0  0  0
    0.3331    0.0000    0.0221 H   0  0  0  0  0  0  0  0  0  0  0  0
  1  2  1  0  0  0  0
  1  3  2  0  0  0  0
  1  9  1  0  0  0  0
  2  4  2  0  0  0  0
  2 10  1  0  0  0  0
  3  5  1  0  0  0  0
  3 11  1  0  0  0  0
  4  6  1  0  0  0  0
  4 12  1  0  0  0  0
  5 13  1  0  0  0  0
  5 14  1  1  0  0  0
  5 15  1  6  0  0  0
  6  7  2  0  0  0  0
  6  8  1  0  0  0  0
  8 16  1  0  0  0  0
M  END
>  <Formula> (201)
C6H8O2

>  <Name> (201)
(E,E)-2,4-HEXADIENOIC ACID

>  <CAS-Nr> (201)
110-44-1

>  <EINECS> (201)
203-768-7

>  <21 CFR> (201)
133.118, 150.161, 182.3089, 150.141, 166.110, 177.2260, 133.123, 133.124, 133.169, 133.173, 133.179, 133.187, 133.188, 172.872, 181.23

>  <LD50-rat-oral> (201)
7360

>  <Compound classification> (201)
Ali-COOH

>  <Microorganism> (201)
Aspergillus niger

>  <Microorganism classification> (201)
fungi

>  <NIC> (201)
800

>  <Annotation> (201)
K-salt

>  <Method abbreviation> (201)
ADlT

>  <Ref-Nr> (201)
6476

>  <Marker> (201)
0

>  <Method> (201)
Agar dilution test; Inoculum size: ---; Medium: plate count agar (bacteria), potato dextrose agar (yeast, molds); pH: 3 to 7, see annotations; Incubation-temperature: 28 degrees Centigrade; Incubation-time: 1-5d; Solubility enhancer: ethanol, acetone

>  <Reference> (201)
Jurd, L., King, A.D., Stanley, W.L.: Cinnamyl Phenol Antimicrobial Agents; US 3,865,748 (1975) and also: US 3,745,222 (1973)

>  <mol_id> (201)
203

>  <LD50-mouse-oral> (201)
3200

>  <LD50-mou-ip> (201)
2820

>  <MolWeight> (201)
112.12

>  <Nickname> (201)
Sorbic acid

$$$$

csChmFindW11180110282D

 28 28  0  0  0  0  0  0  0  0999 V2000
    2.7204    1.0763   -0.0075 C   0  0  0  0  0  0  0  0  0  0  0  0
    4.2938    1.0775   -0.0063 C   0  0  0  0  0  0  0  0  0  0  0  0
    1.9450    2.4693   -0.0074 C   0  0  0  0  0  0  0  0  0  0  0  0
    5.0977    2.4510   -0.0052 C   0  0  0  0  0  0  0  0  0  0  0  0
    2.7390    3.8479   -0.0061 C   0  0  0  0  0  0  0  0  0  0  0  0
    0.3914    2.3963   -0.0084 O   0  0  0  0  0  0  0  0  0  0  0  0
    4.3152    3.8310   -0.0051 C   0  0  0  0  0  0  0  0  0  0  0  0
    6.7594    2.3945   -0.0041 C   0  0  0  0  0  0  0  0  0  0  0  0
    7.4467    3.7873   -0.0032 O   0  0  0  0  0  0  0  0  0  0  0  0
    7.5804    1.2605   -0.0038 O   0  0  0  0  0  0  0  0  0  0  0  0
    9.0774    3.7844   -0.0019 C   0  0  0  0  0  0  0  0  0  0  0  0
    9.5534    5.4362   -0.0013 C   0  0  0  0  0  0  0  0  0  0  0  0
   11.2641    5.5585    0.0005 C   0  0  0  0  0  0  0  0  0  0  0  0
   11.7684    7.1899    0.0008 C   0  0  0  0  0  0  0  0  0  0  0  0
    2.0748    0.0112   -0.0084 H   0  0  0  0  0  0  0  0  0  0  0  0
    4.9277    0.0000   -0.0065 H   0  0  0  0  0  0  0  0  0  0  0  0
    2.1207    4.9288   -0.0060 H   0  0  0  0  0  0  0  0  0  0  0  0
    0.0000    3.4222   -0.0083 H   0  0  0  0  0  0  0  0  0  0  0  0
    4.9560    4.9034   -0.0042 H   0  0  0  0  0  0  0  0  0  0  0  0
    9.4871    3.1729   -1.0371 H   0  0  0  0  0  0  0  0  0  0  0  0
    9.4857    3.1723    1.0335 H   0  0  0  0  0  0  0  0  0  0  0  0
    9.0717    6.0169    1.0208 H   0  0  0  0  0  0  0  0  0  0  0  0
    9.0739    6.0166   -1.0246 H   0  0  0  0  0  0  0  0  0  0  0  0
   11.7338    4.9662   -1.0223 H   0  0  0  0  0  0  0  0  0  0  0  0
   11.7319    4.9659    1.0240 H   0  0  0  0  0  0  0  0  0  0  0  0
   13.0319    7.2589    0.0025 H   0  0  0  0  0  0  0  0  0  0  0  0
   11.3337    7.7924    1.0256 H   0  0  0  0  0  0  0  0  0  0  0  0
   11.3365    7.7917   -1.0256 H   0  0  0  0  0  0  0  0  0  0  0  0
  1  2  2  0  0  0  0
  1  3  1  0  0  0  0
  1 15  1  0  0  0  0
  2  4  1  0  0  0  0
  2 16  1  0  0  0  0
  3  5  2  0  0  0  0
  3  6  1  0  0  0  0
  4  7  2  0  0  0  0
  4  8  1  0  0  0  0
  5  7  1  0  0  0  0
  5 17  1  0  0  0  0
  6 18  1  0  0  0  0
  7 19  1  0  0  0  0
  8  9  1  0  0  0  0
  8 10  2  0  0  0  0
  9 11  1  0  0  0  0
 11 12  1  0  0  0  0
 11 20  1  6  0  0  0
 11 21  1  1  0  0  0
 12 13  1  0  0  0  0
 12 22  1  1  0  0  0
 12 23  1  6  0  0  0
 13 14  1  0  0  0  0
 13 24  1  6  0  0  0
 13 25  1  1  0  0  0
 14 26  1  0  0  0  0
 14 27  1  1  0  0  0
 14 28  1  6  0  0  0
M  END
>  <Formula> (202)
C11H14O3

>  <Name> (202)
4-HYDROXY-BENZOIC ACID, BUTYL ESTER

>  <CAS-Nr> (202)
94-26-8

>  <EINECS> (202)
202-318-7

>  <21 CFR> (202)
172.515

>  <Compound classification> (202)
Ar-COOR

>  <Microorganism> (202)
Penicillium chrysogenum

>  <Microorganism classification> (202)
fungi

>  <MIC> (202)
100

>  <Method abbreviation> (202)
ADlT

>  <Ref-Nr> (202)
6476

>  <Marker> (202)
0

>  <Method> (202)
Agar dilution test; Inoculum size: ---; Medium: plate count agar (bacteria), potato dextrose agar (yeast, molds); pH: 3 to 7, see annotations; Incubation-temperature: 28 degrees Centigrade; Incubation-time: 1-5d; Solubility enhancer: ethanol, acetone

>  <Reference> (202)
Jurd, L., King, A.D., Stanley, W.L.: Cinnamyl Phenol Antimicrobial Agents; US 3,865,748 (1975) and also: US 3,745,222 (1973)

>  <mol_id> (202)
997

>  <LD50-mouse-oral> (202)
13200

>  <LD50-mou-ip> (202)
230

>  <MolWeight> (202)
194.22

>  <Nickname> (202)
Butylparaben

>  <other Names> (202)
Butyl p-hydroxybenzoate

$$$$

csChmFindW11180110282D

 37 37  0  0  0  0  0  0  0  0999 V2000
   15.0606    7.2351    0.3320 C   0  0  0  0  0  0  0  0  0  0  0  0
   13.2977    7.2558    0.2638 C   0  0  0  0  0  0  0  0  0  0  0  0
   15.9482    8.7853    0.3183 C   0  0  0  0  0  0  0  0  0  0  0  0
   12.4180    8.8018    0.1814 C   0  0  0  0  0  0  0  0  0  0  0  0
   15.0791   10.3399    0.2360 C   0  0  0  0  0  0  0  0  0  0  0  0
   17.6869    8.6839    0.3893 O   0  0  0  0  0  0  0  0  0  0  0  0
   13.3143   10.3401    0.1678 C   0  0  0  0  0  0  0  0  0  0  0  0
   10.5567    8.8580    0.1074 C   0  0  0  0  0  0  0  0  0  0  0  0
    9.7923    7.2947    0.1242 O   0  0  0  0  0  0  0  0  0  0  0  0
    9.6333   10.1248    0.0336 O   0  0  0  0  0  0  0  0  0  0  0  0
    7.9661    7.2890    0.0536 C   0  0  0  0  0  0  0  0  0  0  0  0
    7.4412    5.4359    0.0942 C   0  0  0  0  0  0  0  0  0  0  0  0
    5.5272    5.2880    0.0021 C   0  0  0  0  0  0  0  0  0  0  0  0
    4.9752    3.4470    0.0445 C   0  0  0  0  0  0  0  0  0  0  0  0
    3.0607    3.2900   -0.0438 C   0  0  0  0  0  0  0  0  0  0  0  0
    2.4988    1.4396   -0.0016 C   0  0  0  0  0  0  0  0  0  0  0  0
    0.5688    1.3487   -0.0931 C   0  0  0  0  0  0  0  0  0  0  0  0
   15.7705    6.0345    0.3841 H   0  0  0  0  0  0  0  0  0  0  0  0
   12.5799    6.0538    0.2863 H   0  0  0  0  0  0  0  0  0  0  0  0
   15.7863   11.5429    0.2135 H   0  0  0  0  0  0  0  0  0  0  0  0
   18.1398    9.8280    0.3686 H   0  0  0  0  0  0  0  0  0  0  0  0
   12.6052   11.5470    0.1147 H   0  0  0  0  0  0  0  0  0  0  0  0
    7.5508    7.9337   -1.1457 H   0  0  0  0  0  0  0  0  0  0  0  0
    7.4602    8.0100    1.1720 H   0  0  0  0  0  0  0  0  0  0  0  0
    7.9242    4.8316    1.2897 H   0  0  0  0  0  0  0  0  0  0  0  0
    8.0412    4.7479   -0.9983 H   0  0  0  0  0  0  0  0  0  0  0  0
    5.0557    5.9015   -1.1946 H   0  0  0  0  0  0  0  0  0  0  0  0
    4.9391    5.9889    1.0948 H   0  0  0  0  0  0  0  0  0  0  0  0
    5.4496    2.8331    1.2396 H   0  0  0  0  0  0  0  0  0  0  0  0
    5.5622    2.7466   -1.0487 H   0  0  0  0  0  0  0  0  0  0  0  0
    2.5886    3.9069   -1.2387 H   0  0  0  0  0  0  0  0  0  0  0  0
    2.4762    3.9929    1.0497 H   0  0  0  0  0  0  0  0  0  0  0  0
    2.9408    0.8418    1.2006 H   0  0  0  0  0  0  0  0  0  0  0  0
    3.0542    0.7548   -1.1063 H   0  0  0  0  0  0  0  0  0  0  0  0
    0.1464    0.0000   -0.0630 H   0  0  0  0  0  0  0  0  0  0  0  0
    0.1128    1.9471   -1.2897 H   0  0  0  0  0  0  0  0  0  0  0  0
    0.0000    2.0337    1.0047 H   0  0  0  0  0  0  0  0  0  0  0  0
  1  2  2  0  0  0  0
  1  3  1  0  0  0  0
  1 18  1  0  0  0  0
  2  4  1  0  0  0  0
  2 19  1  0  0  0  0
  3  5  2  0  0  0  0
  3  6  1  0  0  0  0
  4  7  2  0  0  0  0
  4  8  1  0  0  0  0
  5  7  1  0  0  0  0
  5 20  1  0  0  0  0
  6 21  1  0  0  0  0
  7 22  1  0  0  0  0
  8  9  1  0  0  0  0
  8 10  2  0  0  0  0
  9 11  1  0  0  0  0
 11 12  1  0  0  0  0
 11 23  1  6  0  0  0
 11 24  1  1  0  0  0
 12 13  1  0  0  0  0
 12 25  1  1  0  0  0
 12 26  1  6  0  0  0
 13 14  1  0  0  0  0
 13 27  1  6  0  0  0
 13 28  1  1  0  0  0
 14 15  1  0  0  0  0
 14 29  1  1  0  0  0
 14 30  1  6  0  0  0
 15 16  1  0  0  0  0
 15 31  1  6  0  0  0
 15 32  1  1  0  0  0
 16 17  1  0  0  0  0
 16 33  1  1  0  0  0
 16 34  1  6  0  0  0
 17 35  1  0  0  0  0
 17 36  1  6  0  0  0
 17 37  1  1  0  0  0
M  END
>  <Formula> (203)
C14H20O3

>  <Name> (203)
4-HYDROXY-BENZOIC ACID, HEPTYL ESTER

>  <CAS-Nr> (203)
1085-12-7

>  <21 CFR> (203)
172.145, 193.285

>  <Compound classification> (203)
Ar-COOR

>  <Microorganism> (203)
Botrytis cinera

>  <Microorganism classification> (203)
fungi

>  <MIC> (203)
50

>  <Annotation> (203)
MIC: range 50 - 100 ppm

>  <Method abbreviation> (203)
ADlT

>  <Ref-Nr> (203)
6476

>  <Marker> (203)
0

>  <Method> (203)
Agar dilution test; Inoculum size: ---; Medium: plate count agar (bacteria), potato dextrose agar (yeast, molds); pH: 3 to 7, see annotations; Incubation-temperature: 28 degrees Centigrade; Incubation-time: 1-5d; Solubility enhancer: ethanol, acetone

>  <Reference> (203)
Jurd, L., King, A.D., Stanley, W.L.: Cinnamyl Phenol Antimicrobial Agents; US 3,865,748 (1975) and also: US 3,745,222 (1973)

>  <mol_id> (203)
1269

>  <MolWeight> (203)
236.31

>  <Nickname> (203)
Heptylparaben

>  <other Names> (203)
n-Heptyl p-hydroxybenzoate

$$$$

csChmFindW11180110282D

 32 33  0  0  0  0  0  0  0  0999 V2000
    8.7084    4.4787   -2.9922 C   0  0  0  0  0  0  0  0  0  0  0  0
    8.5719    2.7019   -2.8763 C   0  0  0  0  0  0  0  0  0  0  0  0
   10.0565    1.7122   -2.8772 C   0  0  0  0  0  0  0  0  0  0  0  0
   11.6520    2.4881   -2.9885 C   0  0  0  0  0  0  0  0  0  0  0  0
   11.7791    4.2576   -3.1011 C   0  0  0  0  0  0  0  0  0  0  0  0
   10.3039    5.2514   -3.1030 C   0  0  0  0  0  0  0  0  0  0  0  0
    6.8639    1.8812   -2.7753 C   0  0  0  0  0  0  0  0  0  0  0  0
    5.9960    2.2308   -1.0823 C   0  0  0  0  0  0  0  0  0  0  0  0
    4.2439    1.4123   -1.0295 C   0  0  0  0  0  0  0  0  0  0  0  0
    3.3734    1.7179    0.6272 C   0  0  0  0  0  0  0  0  0  0  0  0
    3.9529    0.9228    2.1139 C   0  0  0  0  0  0  0  0  0  0  0  0
    3.1418    1.1855    3.6730 C   0  0  0  0  0  0  0  0  0  0  0  0
    1.7258    2.2556    3.7715 C   0  0  0  0  0  0  0  0  0  0  0  0
    1.1169    3.0636    2.3134 C   0  0  0  0  0  0  0  0  0  0  0  0
    1.9396    2.7945    0.7483 C   0  0  0  0  0  0  0  0  0  0  0  0
    1.3846    3.5636   -0.7311 O   0  0  0  0  0  0  0  0  0  0  0  0
    7.5453    5.2631   -2.9948 H   0  0  0  0  0  0  0  0  0  0  0  0
    9.9646    0.3152   -2.7902 H   0  0  0  0  0  0  0  0  0  0  0  0
   12.8122    1.7005   -2.9879 H   0  0  0  0  0  0  0  0  0  0  0  0
   13.0376    4.8684   -3.1891 H   0  0  0  0  0  0  0  0  0  0  0  0
   10.3995    6.6475   -3.1932 H   0  0  0  0  0  0  0  0  0  0  0  0
    6.9859    0.4670   -2.9621 H   0  0  0  0  0  0  0  0  0  0  0  0
    6.0414    2.3777   -3.8388 H   0  0  0  0  0  0  0  0  0  0  0  0
    5.8748    3.6424   -0.8893 H   0  0  0  0  0  0  0  0  0  0  0  0
    6.7977    1.7217   -0.0134 H   0  0  0  0  0  0  0  0  0  0  0  0
    4.3739    0.0000   -1.2349 H   0  0  0  0  0  0  0  0  0  0  0  0
    3.4470    1.9267   -2.1027 H   0  0  0  0  0  0  0  0  0  0  0  0
    5.0704    0.0762    2.0405 H   0  0  0  0  0  0  0  0  0  0  0  0
    3.6201    0.5472    4.8257 H   0  0  0  0  0  0  0  0  0  0  0  0
    1.0847    2.4640    5.0012 H   0  0  0  0  0  0  0  0  0  0  0  0
    0.0000    3.9069    2.3830 H   0  0  0  0  0  0  0  0  0  0  0  0
    0.3895    4.2396   -0.4545 H   0  0  0  0  0  0  0  0  0  0  0  0
  1  2  2  0  0  0  0
  1  6  1  0  0  0  0
  1 17  1  0  0  0  0
  2  3  1  0  0  0  0
  2  7  1  0  0  0  0
  3  4  2  0  0  0  0
  3 18  1  0  0  0  0
  4  5  1  0  0  0  0
  4 19  1  0  0  0  0
  5  6  2  0  0  0  0
  5 20  1  0  0  0  0
  6 21  1  0  0  0  0
  7  8  1  1  0  0  0
  7 22  1  0  0  0  0
  7 23  1  6  0  0  0
  8  9  1  0  0  0  0
  8 24  1  0  0  0  0
  8 25  1  1  0  0  0
  9 10  1  1  0  0  0
  9 26  1  0  0  0  0
  9 27  1  6  0  0  0
 10 11  2  0  0  0  0
 10 15  1  0  0  0  0
 11 12  1  1  0  0  0
 11 28  1  0  0  0  0
 12 13  2  0  0  0  0
 12 29  1  1  0  0  0
 13 14  1  6  0  0  0
 13 30  1  1  0  0  0
 14 15  2  0  0  0  0
 14 31  1  0  0  0  0
 15 16  1  6  0  0  0
 16 32  1  0  0  0  0
M  END
>  <Formula> (204)
C15H16O

>  <Name> (204)
2-(3-PHENYL-PROPYL)-PHENOL

>  <Compound classification> (204)
Phenylpropane

>  <Microorganism> (204)
Lactococcus lactis subsp. lactis

>  <Publication strain name> (204)
Streptococcus lactis

>  <Microorganism classification> (204)
Bac+

>  <MIC> (204)
12

>  <Method abbreviation> (204)
ADlT

>  <Ref-Nr> (204)
6477

>  <Marker> (204)
0

>  <Method> (204)
Agar dilution test; Inoculum size: ---; Medium: plate count agar pH=7.0 (bacteria), potato dextrose agar pH=5.6 (yeast, molds); pH: 3 to 7, see annotations; Incubation-temperature: 28 degrees Centigrade; Incubation-time: 1-5d; Solubility enhancer: acetone

>  <Reference> (204)
Jurd, L., Stevens, K.L., King, A.D.: Dihydrocinnamyl Phenol Antimicrobial Agents; US 3,915,889 (1975) [see also: Jurd, L., Stevens, K.L., King, A.D.: Dihydrocinnamyl Phenols Useful as Antimicrobial Agents; US 3,867,548 (1975)]

>  <mol_id> (204)
1453

>  <MolWeight> (204)
212.29

>  <Nickname> (204)
Dihydro-2-cinnamylphenol

$$$$

csChmFindW11180110282D

 32 33  0  0  0  0  0  0  0  0999 V2000
    8.7084    4.4787   -2.9922 C   0  0  0  0  0  0  0  0  0  0  0  0
    8.5719    2.7019   -2.8763 C   0  0  0  0  0  0  0  0  0  0  0  0
   10.0565    1.7122   -2.8772 C   0  0  0  0  0  0  0  0  0  0  0  0
   11.6520    2.4881   -2.9885 C   0  0  0  0  0  0  0  0  0  0  0  0
   11.7791    4.2576   -3.1011 C   0  0  0  0  0  0  0  0  0  0  0  0
   10.3039    5.2514   -3.1030 C   0  0  0  0  0  0  0  0  0  0  0  0
    6.8639    1.8812   -2.7753 C   0  0  0  0  0  0  0  0  0  0  0  0
    5.9960    2.2308   -1.0823 C   0  0  0  0  0  0  0  0  0  0  0  0
    4.2439    1.4123   -1.0295 C   0  0  0  0  0  0  0  0  0  0  0  0
    3.3734    1.7179    0.6272 C   0  0  0  0  0  0  0  0  0  0  0  0
    3.9529    0.9228    2.1139 C   0  0  0  0  0  0  0  0  0  0  0  0
    3.1418    1.1855    3.6730 C   0  0  0  0  0  0  0  0  0  0  0  0
    1.7258    2.2556    3.7715 C   0  0  0  0  0  0  0  0  0  0  0  0
    1.1169    3.0636    2.3134 C   0  0  0  0  0  0  0  0  0  0  0  0
    1.9396    2.7945    0.7483 C   0  0  0  0  0  0  0  0  0  0  0  0
    1.3846    3.5636   -0.7311 O   0  0  0  0  0  0  0  0  0  0  0  0
    7.5453    5.2631   -2.9948 H   0  0  0  0  0  0  0  0  0  0  0  0
    9.9646    0.3152   -2.7902 H   0  0  0  0  0  0  0  0  0  0  0  0
   12.8122    1.7005   -2.9879 H   0  0  0  0  0  0  0  0  0  0  0  0
   13.0376    4.8684   -3.1891 H   0  0  0  0  0  0  0  0  0  0  0  0
   10.3995    6.6475   -3.1932 H   0  0  0  0  0  0  0  0  0  0  0  0
    6.9859    0.4670   -2.9621 H   0  0  0  0  0  0  0  0  0  0  0  0
    6.0414    2.3777   -3.8388 H   0  0  0  0  0  0  0  0  0  0  0  0
    5.8748    3.6424   -0.8893 H   0  0  0  0  0  0  0  0  0  0  0  0
    6.7977    1.7217   -0.0134 H   0  0  0  0  0  0  0  0  0  0  0  0
    4.3739    0.0000   -1.2349 H   0  0  0  0  0  0  0  0  0  0  0  0
    3.4470    1.9267   -2.1027 H   0  0  0  0  0  0  0  0  0  0  0  0
    5.0704    0.0762    2.0405 H   0  0  0  0  0  0  0  0  0  0  0  0
    3.6201    0.5472    4.8257 H   0  0  0  0  0  0  0  0  0  0  0  0
    1.0847    2.4640    5.0012 H   0  0  0  0  0  0  0  0  0  0  0  0
    0.0000    3.9069    2.3830 H   0  0  0  0  0  0  0  0  0  0  0  0
    0.3895    4.2396   -0.4545 H   0  0  0  0  0  0  0  0  0  0  0  0
  1  2  2  0  0  0  0
  1  6  1  0  0  0  0
  1 17  1  0  0  0  0
  2  3  1  0  0  0  0
  2  7  1  0  0  0  0
  3  4  2  0  0  0  0
  3 18  1  0  0  0  0
  4  5  1  0  0  0  0
  4 19  1  0  0  0  0
  5  6  2  0  0  0  0
  5 20  1  0  0  0  0
  6 21  1  0  0  0  0
  7  8  1  1  0  0  0
  7 22  1  0  0  0  0
  7 23  1  6  0  0  0
  8  9  1  0  0  0  0
  8 24  1  0  0  0  0
  8 25  1  1  0  0  0
  9 10  1  1  0  0  0
  9 26  1  0  0  0  0
  9 27  1  6  0  0  0
 10 11  2  0  0  0  0
 10 15  1  0  0  0  0
 11 12  1  1  0  0  0
 11 28  1  0  0  0  0
 12 13  2  0  0  0  0
 12 29  1  1  0  0  0
 13 14  1  6  0  0  0
 13 30  1  1  0  0  0
 14 15  2  0  0  0  0
 14 31  1  0  0  0  0
 15 16  1  6  0  0  0
 16 32  1  0  0  0  0
M  END
>  <Formula> (205)
C15H16O

>  <Name> (205)
2-(3-PHENYL-PROPYL)-PHENOL

>  <Compound classification> (205)
Phenylpropane

>  <Microorganism> (205)
Micrococcus luteus

>  <Publication strain name> (205)
Sarcina lutea

>  <Microorganism classification> (205)
Bac+

>  <MIC> (205)
25

>  <Method abbreviation> (205)
ADlT

>  <Ref-Nr> (205)
6477

>  <Marker> (205)
0

>  <Method> (205)
Agar dilution test; Inoculum size: ---; Medium: plate count agar pH=7.0 (bacteria), potato dextrose agar pH=5.6 (yeast, molds); pH: 3 to 7, see annotations; Incubation-temperature: 28 degrees Centigrade; Incubation-time: 1-5d; Solubility enhancer: acetone

>  <Reference> (205)
Jurd, L., Stevens, K.L., King, A.D.: Dihydrocinnamyl Phenol Antimicrobial Agents; US 3,915,889 (1975) [see also: Jurd, L., Stevens, K.L., King, A.D.: Dihydrocinnamyl Phenols Useful as Antimicrobial Agents; US 3,867,548 (1975)]

>  <mol_id> (205)
1453

>  <MolWeight> (205)
212.29

>  <Nickname> (205)
Dihydro-2-cinnamylphenol

$$$$

csChmFindW11180110282D

 32 33  0  0  0  0  0  0  0  0999 V2000
    8.7084    4.4787   -2.9922 C   0  0  0  0  0  0  0  0  0  0  0  0
    8.5719    2.7019   -2.8763 C   0  0  0  0  0  0  0  0  0  0  0  0
   10.0565    1.7122   -2.8772 C   0  0  0  0  0  0  0  0  0  0  0  0
   11.6520    2.4881   -2.9885 C   0  0  0  0  0  0  0  0  0  0  0  0
   11.7791    4.2576   -3.1011 C   0  0  0  0  0  0  0  0  0  0  0  0
   10.3039    5.2514   -3.1030 C   0  0  0  0  0  0  0  0  0  0  0  0
    6.8639    1.8812   -2.7753 C   0  0  0  0  0  0  0  0  0  0  0  0
    5.9960    2.2308   -1.0823 C   0  0  0  0  0  0  0  0  0  0  0  0
    4.2439    1.4123   -1.0295 C   0  0  0  0  0  0  0  0  0  0  0  0
    3.3734    1.7179    0.6272 C   0  0  0  0  0  0  0  0  0  0  0  0
    3.9529    0.9228    2.1139 C   0  0  0  0  0  0  0  0  0  0  0  0
    3.1418    1.1855    3.6730 C   0  0  0  0  0  0  0  0  0  0  0  0
    1.7258    2.2556    3.7715 C   0  0  0  0  0  0  0  0  0  0  0  0
    1.1169    3.0636    2.3134 C   0  0  0  0  0  0  0  0  0  0  0  0
    1.9396    2.7945    0.7483 C   0  0  0  0  0  0  0  0  0  0  0  0
    1.3846    3.5636   -0.7311 O   0  0  0  0  0  0  0  0  0  0  0  0
    7.5453    5.2631   -2.9948 H   0  0  0  0  0  0  0  0  0  0  0  0
    9.9646    0.3152   -2.7902 H   0  0  0  0  0  0  0  0  0  0  0  0
   12.8122    1.7005   -2.9879 H   0  0  0  0  0  0  0  0  0  0  0  0
   13.0376    4.8684   -3.1891 H   0  0  0  0  0  0  0  0  0  0  0  0
   10.3995    6.6475   -3.1932 H   0  0  0  0  0  0  0  0  0  0  0  0
    6.9859    0.4670   -2.9621 H   0  0  0  0  0  0  0  0  0  0  0  0
    6.0414    2.3777   -3.8388 H   0  0  0  0  0  0  0  0  0  0  0  0
    5.8748    3.6424   -0.8893 H   0  0  0  0  0  0  0  0  0  0  0  0
    6.7977    1.7217   -0.0134 H   0  0  0  0  0  0  0  0  0  0  0  0
    4.3739    0.0000   -1.2349 H   0  0  0  0  0  0  0  0  0  0  0  0
    3.4470    1.9267   -2.1027 H   0  0  0  0  0  0  0  0  0  0  0  0
    5.0704    0.0762    2.0405 H   0  0  0  0  0  0  0  0  0  0  0  0
    3.6201    0.5472    4.8257 H   0  0  0  0  0  0  0  0  0  0  0  0
    1.0847    2.4640    5.0012 H   0  0  0  0  0  0  0  0  0  0  0  0
    0.0000    3.9069    2.3830 H   0  0  0  0  0  0  0  0  0  0  0  0
    0.3895    4.2396   -0.4545 H   0  0  0  0  0  0  0  0  0  0  0  0
  1  2  2  0  0  0  0
  1  6  1  0  0  0  0
  1 17  1  0  0  0  0
  2  3  1  0  0  0  0
  2  7  1  0  0  0  0
  3  4  2  0  0  0  0
  3 18  1  0  0  0  0
  4  5  1  0  0  0  0
  4 19  1  0  0  0  0
  5  6  2  0  0  0  0
  5 20  1  0  0  0  0
  6 21  1  0  0  0  0
  7  8  1  1  0  0  0
  7 22  1  0  0  0  0
  7 23  1  6  0  0  0
  8  9  1  0  0  0  0
  8 24  1  0  0  0  0
  8 25  1  1  0  0  0
  9 10  1  1  0  0  0
  9 26  1  0  0  0  0
  9 27  1  6  0  0  0
 10 11  2  0  0  0  0
 10 15  1  0  0  0  0
 11 12  1  1  0  0  0
 11 28  1  0  0  0  0
 12 13  2  0  0  0  0
 12 29  1  1  0  0  0
 13 14  1  6  0  0  0
 13 30  1  1  0  0  0
 14 15  2  0  0  0  0
 14 31  1  0  0  0  0
 15 16  1  6  0  0  0
 16 32  1  0  0  0  0
M  END
>  <Formula> (206)
C15H16O

>  <Name> (206)
2-(3-PHENYL-PROPYL)-PHENOL

>  <Compound classification> (206)
Phenylpropane

>  <Microorganism> (206)
Pichia membranifaciens

>  <Microorganism type> (206)
C-238

>  <Publication strain name> (206)
Pichia chodati var. fermentans

>  <Microorganism classification> (206)
yeast

>  <MIC> (206)
50

>  <Method abbreviation> (206)
ADlT

>  <Ref-Nr> (206)
6477

>  <Marker> (206)
0

>  <Method> (206)
Agar dilution test; Inoculum size: ---; Medium: plate count agar pH=7.0 (bacteria), potato dextrose agar pH=5.6 (yeast, molds); pH: 3 to 7, see annotations; Incubation-temperature: 28 degrees Centigrade; Incubation-time: 1-5d; Solubility enhancer: acetone

>  <Reference> (206)
Jurd, L., Stevens, K.L., King, A.D.: Dihydrocinnamyl Phenol Antimicrobial Agents; US 3,915,889 (1975) [see also: Jurd, L., Stevens, K.L., King, A.D.: Dihydrocinnamyl Phenols Useful as Antimicrobial Agents; US 3,867,548 (1975)]

>  <mol_id> (206)
1453

>  <MolWeight> (206)
212.29

>  <Nickname> (206)
Dihydro-2-cinnamylphenol

$$$$

csChmFindW11180110282D

 37 37  0  0  0  0  0  0  0  0999 V2000
   15.0606    7.2351    0.3320 C   0  0  0  0  0  0  0  0  0  0  0  0
   13.2977    7.2558    0.2638 C   0  0  0  0  0  0  0  0  0  0  0  0
   15.9482    8.7853    0.3183 C   0  0  0  0  0  0  0  0  0  0  0  0
   12.4180    8.8018    0.1814 C   0  0  0  0  0  0  0  0  0  0  0  0
   15.0791   10.3399    0.2360 C   0  0  0  0  0  0  0  0  0  0  0  0
   17.6869    8.6839    0.3893 O   0  0  0  0  0  0  0  0  0  0  0  0
   13.3143   10.3401    0.1678 C   0  0  0  0  0  0  0  0  0  0  0  0
   10.5567    8.8580    0.1074 C   0  0  0  0  0  0  0  0  0  0  0  0
    9.7923    7.2947    0.1242 O   0  0  0  0  0  0  0  0  0  0  0  0
    9.6333   10.1248    0.0336 O   0  0  0  0  0  0  0  0  0  0  0  0
    7.9661    7.2890    0.0536 C   0  0  0  0  0  0  0  0  0  0  0  0
    7.4412    5.4359    0.0942 C   0  0  0  0  0  0  0  0  0  0  0  0
    5.5272    5.2880    0.0021 C   0  0  0  0  0  0  0  0  0  0  0  0
    4.9752    3.4470    0.0445 C   0  0  0  0  0  0  0  0  0  0  0  0
    3.0607    3.2900   -0.0438 C   0  0  0  0  0  0  0  0  0  0  0  0
    2.4988    1.4396   -0.0016 C   0  0  0  0  0  0  0  0  0  0  0  0
    0.5688    1.3487   -0.0931 C   0  0  0  0  0  0  0  0  0  0  0  0
   15.7705    6.0345    0.3841 H   0  0  0  0  0  0  0  0  0  0  0  0
   12.5799    6.0538    0.2863 H   0  0  0  0  0  0  0  0  0  0  0  0
   15.7863   11.5429    0.2135 H   0  0  0  0  0  0  0  0  0  0  0  0
   18.1398    9.8280    0.3686 H   0  0  0  0  0  0  0  0  0  0  0  0
   12.6052   11.5470    0.1147 H   0  0  0  0  0  0  0  0  0  0  0  0
    7.5508    7.9337   -1.1457 H   0  0  0  0  0  0  0  0  0  0  0  0
    7.4602    8.0100    1.1720 H   0  0  0  0  0  0  0  0  0  0  0  0
    7.9242    4.8316    1.2897 H   0  0  0  0  0  0  0  0  0  0  0  0
    8.0412    4.7479   -0.9983 H   0  0  0  0  0  0  0  0  0  0  0  0
    5.0557    5.9015   -1.1946 H   0  0  0  0  0  0  0  0  0  0  0  0
    4.9391    5.9889    1.0948 H   0  0  0  0  0  0  0  0  0  0  0  0
    5.4496    2.8331    1.2396 H   0  0  0  0  0  0  0  0  0  0  0  0
    5.5622    2.7466   -1.0487 H   0  0  0  0  0  0  0  0  0  0  0  0
    2.5886    3.9069   -1.2387 H   0  0  0  0  0  0  0  0  0  0  0  0
    2.4762    3.9929    1.0497 H   0  0  0  0  0  0  0  0  0  0  0  0
    2.9408    0.8418    1.2006 H   0  0  0  0  0  0  0  0  0  0  0  0
    3.0542    0.7548   -1.1063 H   0  0  0  0  0  0  0  0  0  0  0  0
    0.1464    0.0000   -0.0630 H   0  0  0  0  0  0  0  0  0  0  0  0
    0.1128    1.9471   -1.2897 H   0  0  0  0  0  0  0  0  0  0  0  0
    0.0000    2.0337    1.0047 H   0  0  0  0  0  0  0  0  0  0  0  0
  1  2  2  0  0  0  0
  1  3  1  0  0  0  0
  1 18  1  0  0  0  0
  2  4  1  0  0  0  0
  2 19  1  0  0  0  0
  3  5  2  0  0  0  0
  3  6  1  0  0  0  0
  4  7  2  0  0  0  0
  4  8  1  0  0  0  0
  5  7  1  0  0  0  0
  5 20  1  0  0  0  0
  6 21  1  0  0  0  0
  7 22  1  0  0  0  0
  8  9  1  0  0  0  0
  8 10  2  0  0  0  0
  9 11  1  0  0  0  0
 11 12  1  0  0  0  0
 11 23  1  6  0  0  0
 11 24  1  1  0  0  0
 12 13  1  0  0  0  0
 12 25  1  1  0  0  0
 12 26  1  6  0  0  0
 13 14  1  0  0  0  0
 13 27  1  6  0  0  0
 13 28  1  1  0  0  0
 14 15  1  0  0  0  0
 14 29  1  1  0  0  0
 14 30  1  6  0  0  0
 15 16  1  0  0  0  0
 15 31  1  6  0  0  0
 15 32  1  1  0  0  0
 16 17  1  0  0  0  0
 16 33  1  1  0  0  0
 16 34  1  6  0  0  0
 17 35  1  0  0  0  0
 17 36  1  6  0  0  0
 17 37  1  1  0  0  0
M  END
>  <Formula> (207)
C14H20O3

>  <Name> (207)
4-HYDROXY-BENZOIC ACID, HEPTYL ESTER

>  <CAS-Nr> (207)
1085-12-7

>  <21 CFR> (207)
172.145, 193.285

>  <Compound classification> (207)
Ar-COOR

>  <Microorganism> (207)
Aspergillus sp.

>  <Microorganism classification> (207)
fungi

>  <MIC> (207)
960

>  <Annotation> (207)
pH=5.6

>  <Method abbreviation> (207)
SDT

>  <Ref-Nr> (207)
6487

>  <Marker> (207)
0

>  <Method> (207)
Agar dilution test; Inoculum size: adjusted by turbidity; Medium: Sabouraud dextrose agar; pH: adjusted; Incubation-temperature: 30 degrees  Centigrade; Incubation-time: 1 to 6 weeks; Solubility enhancer: acetone                                                                           Serial dilution test; Inoculum size: adjusted by turbidity; Medium: Sabouraud  dextrose agar; pH: adjusted; Incubation-temperature: 30 degrees          Centigrade; Incubation-time: 1 to 6 weeks; Solubility enhancer: acetone

>  <Reference> (207)
Huppert, M.: The Antifungal Activity of a Homologous Series of Parabens - Preliminary Studies; Antibiotics and Chemotherapy 7, 29-36 (1957)

>  <mol_id> (207)
1269

>  <MolWeight> (207)
236.31

>  <Nickname> (207)
Heptylparaben

>  <other Names> (207)
n-Heptyl p-hydroxybenzoate

$$$$

csChmFindW11180110282D

 42 42  0  0  0  0  0  0  0  0999 V2000
    8.5061   11.9623   -2.1145 C   0  0  0  0  0  0  0  0  0  0  0  0
    8.5312   10.0233   -1.6302 C   0  0  0  0  0  0  0  0  0  0  0  0
    7.1584   13.0924   -1.6893 C   0  0  0  0  0  0  0  0  0  0  0  0
    6.6826    9.3318   -1.0538 C   0  0  0  0  0  0  0  0  0  0  0  0
    5.5219   12.4737   -0.6996 C   0  0  0  0  0  0  0  0  0  0  0  0
    7.1804   15.0282   -2.1860 C   0  0  0  0  0  0  0  0  0  0  0  0
    5.8061   10.6721    0.2284 C   0  0  0  0  0  0  0  0  0  0  0  0
    6.8029    7.4195   -0.2330 C   0  0  0  0  0  0  0  0  0  0  0  0
    4.9492    6.5026   -0.3726 C   0  0  0  0  0  0  0  0  0  0  0  0
    7.4727    7.4510    1.7099 C   0  0  0  0  0  0  0  0  0  0  0  0
    8.0715    6.4743   -1.3394 O   0  0  0  0  0  0  0  0  0  0  0  0
    4.8440    4.7039    0.5901 C   0  0  0  0  0  0  0  0  0  0  0  0
    3.0889    3.7964    0.2833 C   0  0  0  0  0  0  0  0  0  0  0  0
    2.6080    2.2551    1.1052 C   0  0  0  0  0  0  0  0  0  0  0  0
    0.8415    1.3831    0.7597 C   0  0  0  0  0  0  0  0  0  0  0  0
    3.8034    1.3257    2.4120 C   0  0  0  0  0  0  0  0  0  0  0  0
    9.7027   12.4434   -2.8537 H   0  0  0  0  0  0  0  0  0  0  0  0
    9.5306    9.8092   -0.5099 H   0  0  0  0  0  0  0  0  0  0  0  0
    9.0147    9.2033   -2.8102 H   0  0  0  0  0  0  0  0  0  0  0  0
    5.8192    9.2266   -2.3010 H   0  0  0  0  0  0  0  0  0  0  0  0
    4.3742   12.3654   -1.6851 H   0  0  0  0  0  0  0  0  0  0  0  0
    5.1289   13.5102    0.3327 H   0  0  0  0  0  0  0  0  0  0  0  0
    5.9236   15.3861   -2.9410 H   0  0  0  0  0  0  0  0  0  0  0  0
    8.3685   15.3651   -3.0505 H   0  0  0  0  0  0  0  0  0  0  0  0
    7.2402   15.8816   -0.9423 H   0  0  0  0  0  0  0  0  0  0  0  0
    6.6916   10.8682    1.4400 H   0  0  0  0  0  0  0  0  0  0  0  0
    4.4763   10.1435    0.7153 H   0  0  0  0  0  0  0  0  0  0  0  0
    4.6388    6.3026   -1.8413 H   0  0  0  0  0  0  0  0  0  0  0  0
    3.9011    7.4308    0.1979 H   0  0  0  0  0  0  0  0  0  0  0  0
    7.8542    6.0618    2.1523 H   0  0  0  0  0  0  0  0  0  0  0  0
    6.3952    7.9723    2.6223 H   0  0  0  0  0  0  0  0  0  0  0  0
    8.6877    8.3324    1.8293 H   0  0  0  0  0  0  0  0  0  0  0  0
    8.1419    5.2596   -0.8804 H   0  0  0  0  0  0  0  0  0  0  0  0
    5.0506    4.9048    2.0807 H   0  0  0  0  0  0  0  0  0  0  0  0
    5.9617    3.7941    0.1132 H   0  0  0  0  0  0  0  0  0  0  0  0
    2.1693    4.4577   -0.6797 H   0  0  0  0  0  0  0  0  0  0  0  0
    1.0505    0.0085    0.1717 H   0  0  0  0  0  0  0  0  0  0  0  0
    0.0000    2.1874   -0.1980 H   0  0  0  0  0  0  0  0  0  0  0  0
    0.0785    1.2299    2.0529 H   0  0  0  0  0  0  0  0  0  0  0  0
    3.2263    0.0000    2.8375 H   0  0  0  0  0  0  0  0  0  0  0  0
    3.9941    2.1798    3.6430 H   0  0  0  0  0  0  0  0  0  0  0  0
    5.1631    1.0814    1.8024 H   0  0  0  0  0  0  0  0  0  0  0  0
  1  2  1  0  0  0  0
  1  3  2  0  0  0  0
  1 17  1  6  0  0  0
  2  4  1  0  0  0  0
  2 18  1  1  0  0  0
  2 19  1  6  0  0  0
  3  5  1  1  0  0  0
  3  6  1  0  0  0  0
  4  7  1  1  0  0  0
  4  8  1  0  0  0  0
  4 20  1  6  0  0  0
  5  7  1  1  0  0  0
  5 21  1  6  0  0  0
  5 22  1  1  0  0  0
  6 23  1  6  0  0  0
  6 24  1  6  0  0  0
  6 25  1  1  0  0  0
  7 26  1  1  0  0  0
  7 27  1  0  0  0  0
  8  9  1  0  0  0  0
  8 10  1  1  0  0  0
  8 11  1  6  0  0  0
  9 12  1  1  0  0  0
  9 28  1  6  0  0  0
  9 29  1  0  0  0  0
 10 30  1  0  0  0  0
 10 31  1  1  0  0  0
 10 32  1  0  0  0  0
 11 33  1  0  0  0  0
 12 13  1  0  0  0  0
 12 34  1  1  0  0  0
 12 35  1  0  0  0  0
 13 14  2  0  0  0  0
 13 36  1  6  0  0  0
 14 15  1  0  0  0  0
 14 16  1  1  0  0  0
 15 37  1  0  0  0  0
 15 38  1  6  0  0  0
 15 39  1  1  0  0  0
 16 40  1  0  0  0  0
 16 41  1  1  0  0  0
 16 42  1  0  0  0  0
M  END
>  <Formula> (208)
C15H26O

>  <Name> (208)
(R*,R*)-ALPHA,4-DIMETHYL-ALPHA-(4-METHYL-3-PENTENYL)-3-CYCLOHEXENE-1-METHANOL

>  <CAS-Nr> (208)
515-69-5

>  <EINECS> (208)
208-205-9

>  <LD50-rat-oral> (208)
14850

>  <Compound classification> (208)
Sesquiterpene

>  <Microorganism> (208)
Bacillus subtilis

>  <Microorganism type> (208)
CECT 397

>  <Microorganism classification> (208)
Bac+

>  <NIC> (208)
100

>  <Annotation> (208)
NIC: estimated

>  <Method abbreviation> (208)
SDT

>  <Ref-Nr> (208)
6539

>  <Marker> (208)
0

>  <Method> (208)
Serial dilution test; Inoculum size: 10E4 per tube; Medium: nutrient broth (bacteria), Sabouraud medium (fungi); pH: ---; Incubation-temperature: 28 degrees Centigrade; Incubation-time: 24-48h; Solubility enhancer: ---

>  <Reference> (208)
Barrero, A.F., Herrador, M.M., Quilez, J.F., Alvarez-Manzaneda, R., Portal, D., Gavin, J.A., Gravalos, D.G., Simmonds, M.S., Blaney, W.M.: Bioactive Sesquiterpenes from Santolina rosmarinifolia subsp. canescens. A Conformational Analysis of the Germacrane Ring; Phytochemistry 51, 529-41 (1999)

>  <mol_id> (208)
180

>  <LD50-mouse-oral> (208)
11350

>  <MolWeight> (208)
222.36

>  <Nickname> (208)
alpha-Bisabolol

>  <other Names> (208)
Dragosantol, (-)-alpha-Bisabolol

$$$$

csChmFindW11180110282D

 76 78  0  0  0  0  0  0  0  0999 V2000
   14.0879    5.6417   -1.0658 C   0  0  0  0  0  0  0  0  0  0  0  0
   16.1010    4.8369   -1.1559 C   0  0  0  0  0  0  0  0  0  0  0  0
   17.3773    5.6823    0.3998 C   0  0  0  0  0  0  0  0  0  0  0  0
   17.2012    7.8685    0.3935 C   0  0  0  0  0  0  0  0  0  0  0  0
   15.1150    8.3995    0.5805 C   0  0  0  0  0  0  0  0  0  0  0  0
   13.9946    7.6217   -0.8850 O   0  0  0  0  0  0  0  0  0  0  0  0
   17.9881    8.6292   -1.2794 O   0  0  0  0  0  0  0  0  0  0  0  0
   18.2938    8.7455    2.0176 C   0  0  0  0  0  0  0  0  0  0  0  0
   19.2927    4.9925    0.1864 N   0  0  0  0  0  0  0  0  0  0  0  0
   20.2169    4.4635    1.9074 C   0  0  0  0  0  0  0  0  0  0  0  0
   16.7440    5.2741   -2.9980 O   0  0  0  0  0  0  0  0  0  0  0  0
   13.2116    4.9495    0.5864 O   0  0  0  0  0  0  0  0  0  0  0  0
    7.9444    5.2945   -0.0824 C   0  0  0  0  0  0  0  0  0  0  0  0
   10.0040    5.9498   -0.1659 C   0  0  0  0  0  0  0  0  0  0  0  0
   11.3163    4.3267    0.4106 C   0  0  0  0  0  0  0  0  0  0  0  0
   11.0603    2.6474   -0.9487 C   0  0  0  0  0  0  0  0  0  0  0  0
    8.9956    2.0130   -0.8093 C   0  0  0  0  0  0  0  0  0  0  0  0
    7.6082    3.5654   -1.3802 C   0  0  0  0  0  0  0  0  0  0  0  0
   12.4375    1.1749   -0.6271 N   0  0  0  0  0  0  0  0  0  0  0  0
    7.6206    3.9389   -3.3833 N   0  0  0  0  0  0  0  0  0  0  0  0
   10.1943    7.4639    1.1224 O   0  0  0  0  0  0  0  0  0  0  0  0
    6.7412    6.7596   -0.7547 O   0  0  0  0  0  0  0  0  0  0  0  0
    2.5947    9.4038    2.1416 C   0  0  0  0  0  0  0  0  0  0  0  0
    3.9283   10.7275    1.1347 C   0  0  0  0  0  0  0  0  0  0  0  0
    5.0443    9.6361   -0.3608 C   0  0  0  0  0  0  0  0  0  0  0  0
    6.0425    7.9728    0.6614 C   0  0  0  0  0  0  0  0  0  0  0  0
    4.7440    6.7864    1.6259 O   0  0  0  0  0  0  0  0  0  0  0  0
    3.6797    7.7767    3.0191 C   0  0  0  0  0  0  0  0  0  0  0  0
    2.3745    6.3094    3.9802 C   0  0  0  0  0  0  0  0  0  0  0  0
    3.3743    4.8401    5.0011 N   0  0  0  0  0  0  0  0  0  0  0  0
    4.4070    5.4650    6.6249 C   0  0  0  0  0  0  0  0  0  0  0  0
    1.0254    5.4533    2.5377 C   0  0  0  0  0  0  0  0  0  0  0  0
    6.3002   10.8247   -1.4326 N   0  0  0  0  0  0  0  0  0  0  0  0
   13.3035    5.3193   -2.4038 H   0  0  0  0  0  0  0  0  0  0  0  0
   16.0146    3.2644   -0.9678 H   0  0  0  0  0  0  0  0  0  0  0  0
   16.7670    5.1737    1.7799 H   0  0  0  0  0  0  0  0  0  0  0  0
   14.9276    9.9598    0.4059 H   0  0  0  0  0  0  0  0  0  0  0  0
   14.5666    7.9229    1.9823 H   0  0  0  0  0  0  0  0  0  0  0  0
   17.2117    8.1974   -2.3154 H   0  0  0  0  0  0  0  0  0  0  0  0
   17.9406   10.2729    2.1330 H   0  0  0  0  0  0  0  0  0  0  0  0
   19.8393    8.6205    1.7616 H   0  0  0  0  0  0  0  0  0  0  0  0
   17.9244    8.0238    3.3619 H   0  0  0  0  0  0  0  0  0  0  0  0
   20.0572    5.9346   -0.5418 H   0  0  0  0  0  0  0  0  0  0  0  0
   21.6665    3.9455    1.5521 H   0  0  0  0  0  0  0  0  0  0  0  0
   19.4125    3.2873    2.5895 H   0  0  0  0  0  0  0  0  0  0  0  0
   20.3492    5.6437    2.9563 H   0  0  0  0  0  0  0  0  0  0  0  0
   17.9183    4.6133   -3.1740 H   0  0  0  0  0  0  0  0  0  0  0  0
    7.5730    4.9117    1.4067 H   0  0  0  0  0  0  0  0  0  0  0  0
   10.3696    6.4577   -1.6227 H   0  0  0  0  0  0  0  0  0  0  0  0
   10.9773    3.8826    1.9005 H   0  0  0  0  0  0  0  0  0  0  0  0
   11.3229    3.1514   -2.4377 H   0  0  0  0  0  0  0  0  0  0  0  0
    8.6694    1.5873    0.6755 H   0  0  0  0  0  0  0  0  0  0  0  0
    8.7653    0.7529   -1.7332 H   0  0  0  0  0  0  0  0  0  0  0  0
    6.1386    3.0442   -1.0399 H   0  0  0  0  0  0  0  0  0  0  0  0
   12.0615    0.0000   -1.3098 H   0  0  0  0  0  0  0  0  0  0  0  0
   12.5649    0.8936    0.7479 H   0  0  0  0  0  0  0  0  0  0  0  0
    8.8571    4.4837   -3.7867 H   0  0  0  0  0  0  0  0  0  0  0  0
    6.5981    4.8617   -3.6955 H   0  0  0  0  0  0  0  0  0  0  0  0
   11.4993    7.8577    1.0598 H   0  0  0  0  0  0  0  0  0  0  0  0
    1.5374    8.8469    1.1103 H   0  0  0  0  0  0  0  0  0  0  0  0
    1.8147   10.1786    3.2715 H   0  0  0  0  0  0  0  0  0  0  0  0
    4.9173   11.3900    2.1714 H   0  0  0  0  0  0  0  0  0  0  0  0
    3.1124   11.8864    0.4420 H   0  0  0  0  0  0  0  0  0  0  0  0
    4.0132    8.9956   -1.3915 H   0  0  0  0  0  0  0  0  0  0  0  0
    7.1835    8.4571    1.6483 H   0  0  0  0  0  0  0  0  0  0  0  0
    4.6937    8.3627    4.0951 H   0  0  0  0  0  0  0  0  0  0  0  0
    1.5172    7.1262    5.0460 H   0  0  0  0  0  0  0  0  0  0  0  0
    4.2111    4.1305    4.1108 H   0  0  0  0  0  0  0  0  0  0  0  0
    4.9738    4.1891    7.3657 H   0  0  0  0  0  0  0  0  0  0  0  0
    3.4332    6.2271    7.6074 H   0  0  0  0  0  0  0  0  0  0  0  0
    5.6238    6.4248    6.2956 H   0  0  0  0  0  0  0  0  0  0  0  0
    0.2186    4.2591    3.1658 H   0  0  0  0  0  0  0  0  0  0  0  0
    1.8201    4.9310    1.2863 H   0  0  0  0  0  0  0  0  0  0  0  0
    0.0000    6.5476    2.0697 H   0  0  0  0  0  0  0  0  0  0  0  0
    6.9902   10.0482   -2.3872 H   0  0  0  0  0  0  0  0  0  0  0  0
    7.2382   11.4547   -0.5891 H   0  0  0  0  0  0  0  0  0  0  0  0
  1  2  1  0  0  0  0
  1  6  1  0  0  0  0
  1 12  1  1  0  0  0
  1 34  1  6  0  0  0
  2  3  1  1  0  0  0
  2 11  1  6  0  0  0
  2 35  1  0  0  0  0
  3  4  1  0  0  0  0
  3  9  1  0  0  0  0
  3 36  1  1  0  0  0
  4  5  1  0  0  0  0
  4  7  1  6  0  0  0
  4  8  1  1  0  0  0
  5  6  1  6  0  0  0
  5 37  1  0  0  0  0
  5 38  1  1  0  0  0
  7 39  1  6  0  0  0
  8 40  1  0  0  0  0
  8 41  1  0  0  0  0
  8 42  1  1  0  0  0
  9 10  1  1  0  0  0
  9 43  1  6  0  0  0
 10 44  1  0  0  0  0
 10 45  1  0  0  0  0
 10 46  1  1  0  0  0
 11 47  1  0  0  0  0
 12 15  1  0  0  0  0
 13 14  1  0  0  0  0
 13 18  1  6  0  0  0
 13 22  1  0  0  0  0
 13 48  1  1  0  0  0
 14 15  1  0  0  0  0
 14 21  1  1  0  0  0
 14 49  1  6  0  0  0
 15 16  1  6  0  0  0
 15 50  1  1  0  0  0
 16 17  1  0  0  0  0
 16 19  1  0  0  0  0
 16 51  1  6  0  0  0
 17 18  1  0  0  0  0
 17 52  1  1  0  0  0
 17 53  1  6  0  0  0
 18 20  1  6  0  0  0
 18 54  1  0  0  0  0
 19 55  1  6  0  0  0
 19 56  1  1  0  0  0
 20 57  1  0  0  0  0
 20 58  1  0  0  0  0
 21 59  1  0  0  0  0
 22 26  1  1  0  0  0
 23 24  1  6  0  0  0
 23 28  1  0  0  0  0
 23 60  1  6  0  0  0
 23 61  1  1  0  0  0
 24 25  1  6  0  0  0
 24 62  1  1  0  0  0
 24 63  1  0  0  0  0
 25 26  1  1  0  0  0
 25 33  1  6  0  0  0
 25 64  1  6  0  0  0
 26 27  1  1  0  0  0
 26 65  1  1  0  0  0
 27 28  1  1  0  0  0
 28 29  1  0  0  0  0
 28 66  1  1  0  0  0
 29 30  1  1  0  0  0
 29 32  1  6  0  0  0
 29 67  1  1  0  0  0
 30 31  1  1  0  0  0
 30 68  1  6  0  0  0
 31 69  1  1  0  0  0
 31 70  1  1  0  0  0
 31 71  1  0  0  0  0
 32 72  1  0  0  0  0
 32 73  1  6  0  0  0
 32 74  1  0  0  0  0
 33 75  1  6  0  0  0
 33 76  1  1  0  0  0
M  END
>  <Formula> (209)
C21H43N5O7

>  <Name> (209)
2-{4,6-DIAMINO-3-[3-AMINO-6-(1-METHYLAMINO-ETHYL)-TETRAHYDRO-PYRAN-2-YLOXY]-2-HYDROXY-CYCLOHEXYLOXY)-5-METHYL-4-METHYLAMINO-TETRAHYDRO-PYRAN-3,5-DIOL

>  <CAS-Nr> (209)
1403-66-3

>  <EINECS> (209)
215-765-8

>  <21 CFR> (209)
556.300, 520.1044a, 520.1044b, 520.1044c, 524.1044

>  <LD50-rat-oral> (209)
6600

>  <Compound classification> (209)
AB-AmGl

>  <Microorganism> (209)
Bacillus subtilis

>  <Microorganism type> (209)
DSM 347

>  <Microorganism classification> (209)
Bac+

>  <MIC> (209)
0.78

>  <Method abbreviation> (209)
SDT

>  <Ref-Nr> (209)
6578

>  <Marker> (209)
0

>  <Method> (209)
Agar diffusion test; Medium: nutrient agar; Inoculum size: ---; disk diameter: 6 mm; Incubation-temperature: 35-37; Incubation time: 18h; compound dose: 0.1 mg per disk;   Serial dilution test; Inoculum size: ---; Medium: ---; pH: ---; Incubation-temperature: 37 degrees Centigrade; Incubation-time: 18h; Solubility enhancer: ---

>  <Reference> (209)
De Rosa, S., De Giulio, A., Iodice, C.: Biological Effects of Prenylated Hydroquinones: Structure-Activity Relationship Studies in Antimicrobial, Brine Shrimp, and Fish Lethality Assays; Journal of Natural Products 57, 1711-6 (1994)

>  <mol_id> (209)
2159

>  <LD50-mouse-oral> (209)
>10000

>  <LD50-mou-ip> (209)
235

>  <MolWeight> (209)
477.60

>  <Nickname> (209)
Gentamycin Antibiotic complex (C1 Structure)

>  <other Names> (209)
Cidomycin, Garamycin, Garasol, Gentacycol, Gentamicin, Gentamicina, Gentamicine, Gentamicinum, Gentamycin, Gentamycin-crme, Gentamycinum, Gentavet, Gentocin, HSDB 3087, Refobacin, Refobacin TM, Uromycine

>  <LD50-mou-iv> (209)
43,5

$$$$

csChmFindW11180110282D

 74 76  0  0  0  0  0  0  0  0999 V2000
    2.4633    5.6439   -3.9194 C   0  0  0  0  0  0  0  0  0  0  0  0
    2.6674    7.0476   -2.7931 C   0  0  0  0  0  0  0  0  0  0  0  0
    4.2798    7.2538   -1.9555 C   0  0  0  0  0  0  0  0  0  0  0  0
    5.6599    6.0991   -2.2114 C   0  0  0  0  0  0  0  0  0  0  0  0
    5.3831    4.6924   -3.3406 C   0  0  0  0  0  0  0  0  0  0  0  0
    3.8113    4.4601   -4.2498 C   0  0  0  0  0  0  0  0  0  0  0  0
    3.5878    3.1104   -5.5389 C   0  0  0  0  0  0  0  0  0  0  0  0
    0.8700    5.5226   -4.6799 O   0  0  0  0  0  0  0  0  0  0  0  0
    1.2308    8.2489   -2.5006 C   0  0  0  0  0  0  0  0  0  0  0  0
    4.3649    8.6326   -0.8700 O   0  0  0  0  0  0  0  0  0  0  0  0
    6.7458    3.5918   -3.4981 O   0  0  0  0  0  0  0  0  0  0  0  0
    4.5830    1.8804   -5.7546 O   0  0  0  0  0  0  0  0  0  0  0  0
    1.3357    9.5741   -1.6308 O   0  0  0  0  0  0  0  0  0  0  0  0
    7.4082    6.3501   -1.4077 C   0  0  0  0  0  0  0  0  0  0  0  0
    5.9346    3.3174    0.9401 C   0  0  0  0  0  0  0  0  0  0  0  0
    8.1729    8.0729   -2.0208 C   0  0  0  0  0  0  0  0  0  0  0  0
    9.3406    7.9078   -3.5950 C   0  0  0  0  0  0  0  0  0  0  0  0
   10.4356    9.5194   -3.7704 C   0  0  0  0  0  0  0  0  0  0  0  0
    8.3158    7.6137   -5.2304 C   0  0  0  0  0  0  0  0  0  0  0  0
    7.5848    2.4738    1.5955 C   0  0  0  0  0  0  0  0  0  0  0  0
    9.1714    3.4726    0.9715 C   0  0  0  0  0  0  0  0  0  0  0  0
    9.1077    5.4177    1.3400 C   0  0  0  0  0  0  0  0  0  0  0  0
    7.4311    6.2082    0.5785 C   0  0  0  0  0  0  0  0  0  0  0  0
    5.8856    5.2310    1.3045 C   0  0  0  0  0  0  0  0  0  0  0  0
   10.8283    2.6533    1.6345 C   0  0  0  0  0  0  0  0  0  0  0  0
   12.3839    3.4802    0.7747 C   0  0  0  0  0  0  0  0  0  0  0  0
   12.3922    5.4104    1.1233 C   0  0  0  0  0  0  0  0  0  0  0  0
   10.7210    6.2475    0.5515 C   0  0  0  0  0  0  0  0  0  0  0  0
   14.0983    2.6311    1.3127 C   0  0  0  0  0  0  0  0  0  0  0  0
   15.3750    3.4619    0.2648 O   0  0  0  0  0  0  0  0  0  0  0  0
   14.0866    0.7046    0.9029 C   0  0  0  0  0  0  0  0  0  0  0  0
   14.5405    2.8951    3.2096 C   0  0  0  0  0  0  0  0  0  0  0  0
    9.1227    5.8008    3.2737 C   0  0  0  0  0  0  0  0  0  0  0  0
    7.4304    2.3352    3.4170 O   0  0  0  0  0  0  0  0  0  0  0  0
    2.4440    3.2430   -6.4022 H   0  0  0  0  0  0  0  0  0  0  0  0
    0.7089    4.3742   -5.1409 H   0  0  0  0  0  0  0  0  0  0  0  0
    0.0000    7.8707   -3.1407 H   0  0  0  0  0  0  0  0  0  0  0  0
    5.4659    8.6231   -0.2712 H   0  0  0  0  0  0  0  0  0  0  0  0
    6.4900    2.6572   -4.2936 H   0  0  0  0  0  0  0  0  0  0  0  0
    8.2705    5.2885   -1.9113 H   0  0  0  0  0  0  0  0  0  0  0  0
    4.7996    2.6804    1.5702 H   0  0  0  0  0  0  0  0  0  0  0  0
    5.8558    3.0872   -0.4874 H   0  0  0  0  0  0  0  0  0  0  0  0
    8.9412    8.6642   -0.9447 H   0  0  0  0  0  0  0  0  0  0  0  0
    7.1166    9.0081   -2.3459 H   0  0  0  0  0  0  0  0  0  0  0  0
   10.2306    6.7728   -3.4125 H   0  0  0  0  0  0  0  0  0  0  0  0
   11.2720    9.4274   -4.9390 H   0  0  0  0  0  0  0  0  0  0  0  0
   11.2803    9.6821   -2.6152 H   0  0  0  0  0  0  0  0  0  0  0  0
    9.6016   10.6866   -3.8967 H   0  0  0  0  0  0  0  0  0  0  0  0
    9.2030    7.4794   -6.3569 H   0  0  0  0  0  0  0  0  0  0  0  0
    7.4249    8.7171   -5.4808 H   0  0  0  0  0  0  0  0  0  0  0  0
    7.5345    6.4076   -5.1136 H   0  0  0  0  0  0  0  0  0  0  0  0
    7.6721    1.1212    1.0542 H   0  0  0  0  0  0  0  0  0  0  0  0
    9.1691    3.3205   -0.4802 H   0  0  0  0  0  0  0  0  0  0  0  0
    7.3595    7.5647    1.1092 H   0  0  0  0  0  0  0  0  0  0  0  0
    5.8398    5.4291    2.7396 H   0  0  0  0  0  0  0  0  0  0  0  0
    4.6551    5.7832    0.7807 H   0  0  0  0  0  0  0  0  0  0  0  0
   10.7971    1.2364    1.3432 H   0  0  0  0  0  0  0  0  0  0  0  0
   10.9224    2.8063    3.0694 H   0  0  0  0  0  0  0  0  0  0  0  0
   12.2692    3.2870   -0.6639 H   0  0  0  0  0  0  0  0  0  0  0  0
   13.4978    6.0088    0.4040 H   0  0  0  0  0  0  0  0  0  0  0  0
   12.6164    5.6569    2.5301 H   0  0  0  0  0  0  0  0  0  0  0  0
   10.7510    7.6472    0.9177 H   0  0  0  0  0  0  0  0  0  0  0  0
   10.6528    6.1674   -0.8907 H   0  0  0  0  0  0  0  0  0  0  0  0
   16.4720    2.9672    0.5772 H   0  0  0  0  0  0  0  0  0  0  0  0
   15.4214    0.1724    1.0023 H   0  0  0  0  0  0  0  0  0  0  0  0
   13.6060    0.4823   -0.4353 H   0  0  0  0  0  0  0  0  0  0  0  0
   13.2440    0.0000    1.8313 H   0  0  0  0  0  0  0  0  0  0  0  0
   15.7183    2.1384    3.5492 H   0  0  0  0  0  0  0  0  0  0  0  0
   13.4560    2.4558    4.0453 H   0  0  0  0  0  0  0  0  0  0  0  0
   14.8046    4.2861    3.4709 H   0  0  0  0  0  0  0  0  0  0  0  0
    8.9483    7.2131    3.4986 H   0  0  0  0  0  0  0  0  0  0  0  0
   10.3757    5.4060    3.8623 H   0  0  0  0  0  0  0  0  0  0  0  0
    8.0755    5.0881    3.9585 H   0  0  0  0  0  0  0  0  0  0  0  0
    8.5155    1.9018    3.8420 H   0  0  0  0  0  0  0  0  0  0  0  0
  1  2  2  0  0  0  0
  1  6  1  0  0  0  0
  1  8  1  0  0  0  0
  2  3  1  1  0  0  0
  2  9  1  0  0  0  0
  3  4  2  0  0  0  0
  3 10  1  1  0  0  0
  4  5  1  6  0  0  0
  4 14  1  0  0  0  0
  5  6  2  0  0  0  0
  5 11  1  0  0  0  0
  6  7  1  6  0  0  0
  7 12  2  0  0  0  0
  7 35  1  6  0  0  0
  8 36  1  0  0  0  0
  9 13  2  0  0  0  0
  9 37  1  0  0  0  0
 10 38  1  1  0  0  0
 11 39  1  6  0  0  0
 14 16  1  0  0  0  0
 14 23  1  1  0  0  0
 14 40  1  0  0  0  0
 15 20  1  0  0  0  0
 15 24  1  0  0  0  0
 15 41  1  0  0  0  0
 15 42  1  6  0  0  0
 16 17  1  6  0  0  0
 16 43  1  1  0  0  0
 16 44  1  0  0  0  0
 17 18  1  0  0  0  0
 17 19  1  6  0  0  0
 17 45  1  0  0  0  0
 18 46  1  6  0  0  0
 18 47  1  1  0  0  0
 18 48  1  0  0  0  0
 19 49  1  6  0  0  0
 19 50  1  0  0  0  0
 19 51  1  0  0  0  0
 20 21  1  0  0  0  0
 20 34  1  1  0  0  0
 20 52  1  0  0  0  0
 21 22  1  0  0  0  0
 21 25  1  0  0  0  0
 21 53  1  6  0  0  0
 22 23  1  0  0  0  0
 22 28  1  0  0  0  0
 22 33  1  1  0  0  0
 23 24  1  0  0  0  0
 23 54  1  0  0  0  0
 24 55  1  1  0  0  0
 24 56  1  0  0  0  0
 25 26  1  0  0  0  0
 25 57  1  0  0  0  0
 25 58  1  1  0  0  0
 26 27  1  0  0  0  0
 26 29  1  0  0  0  0
 26 59  1  6  0  0  0
 27 28  1  0  0  0  0
 27 60  1  6  0  0  0
 27 61  1  1  0  0  0
 28 62  1  0  0  0  0
 28 63  1  6  0  0  0
 29 30  1  6  0  0  0
 29 31  1  0  0  0  0
 29 32  1  1  0  0  0
 30 64  1  0  0  0  0
 31 65  1  0  0  0  0
 31 66  1  6  0  0  0
 31 67  1  1  0  0  0
 32 68  1  0  0  0  0
 32 69  1  1  0  0  0
 32 70  1  0  0  0  0
 33 71  1  0  0  0  0
 33 72  1  0  0  0  0
 33 73  1  1  0  0  0
 34 74  1  0  0  0  0
M  END
>  <Formula> (210)
C27H40O7

>  <Name> (210)
2,4,6-TRIHYDROXY-5-{1-[4-HYDROXY-6-(1-HYDROXY-1-METHYL-ETHYL)-8A-METHYL-DECAHYDRO-NAPHTHALEN-1-YL]-3-METHYL-BUTYL}-BENZENE-1,3-DICARBALDEHYDE

>  <Compound classification> (210)
Terpene related

>  <Microorganism> (210)
Streptococcus sobrinus

>  <Microorganism type> (210)
B13

>  <Microorganism classification> (210)
Bac+

>  <MIC> (210)
100

>  <Method abbreviation> (210)
SDT

>  <Ref-Nr> (210)
6579

>  <Marker> (210)
0

>  <Method> (210)
Serial dilution test; Inoculum size: 1-2X10E5 cfu/ml; Medium: brain heart infusion, trypticase soy broth plus hemin (aerobic or anaerobic growth conditions); pH: ---; Incubation-temperature: 37 degrees Centigrade; Incubation-time: 24h; Solubility enhancer: ethanol

>  <Reference> (210)
Osawa, K., Yasuda, H., Morita, H., Takeya, K., Itokawa, H.: Macrocarpals H, I, and J from the Leaves of Eucalyptus globulus; Journal of Natural Products 59, 823-7 (1996)

>  <mol_id> (210)
2998

>  <MolWeight> (210)
476.60

>  <Nickname> (210)
Macrocarpal I (alpha-Hydroxy, beta-methyl)

$$$$

csChmFindW11180110282D

 74 76  0  0  0  0  0  0  0  0999 V2000
    2.4633    5.6439   -3.9194 C   0  0  0  0  0  0  0  0  0  0  0  0
    2.6674    7.0476   -2.7931 C   0  0  0  0  0  0  0  0  0  0  0  0
    4.2798    7.2538   -1.9555 C   0  0  0  0  0  0  0  0  0  0  0  0
    5.6599    6.0991   -2.2114 C   0  0  0  0  0  0  0  0  0  0  0  0
    5.3831    4.6924   -3.3406 C   0  0  0  0  0  0  0  0  0  0  0  0
    3.8113    4.4601   -4.2498 C   0  0  0  0  0  0  0  0  0  0  0  0
    3.5878    3.1104   -5.5389 C   0  0  0  0  0  0  0  0  0  0  0  0
    0.8700    5.5226   -4.6799 O   0  0  0  0  0  0  0  0  0  0  0  0
    1.2308    8.2489   -2.5006 C   0  0  0  0  0  0  0  0  0  0  0  0
    4.3649    8.6326   -0.8700 O   0  0  0  0  0  0  0  0  0  0  0  0
    6.7458    3.5918   -3.4981 O   0  0  0  0  0  0  0  0  0  0  0  0
    4.5830    1.8804   -5.7546 O   0  0  0  0  0  0  0  0  0  0  0  0
    1.3357    9.5741   -1.6308 O   0  0  0  0  0  0  0  0  0  0  0  0
    7.4082    6.3501   -1.4077 C   0  0  0  0  0  0  0  0  0  0  0  0
    5.9346    3.3174    0.9401 C   0  0  0  0  0  0  0  0  0  0  0  0
    8.1729    8.0729   -2.0208 C   0  0  0  0  0  0  0  0  0  0  0  0
    9.3406    7.9078   -3.5950 C   0  0  0  0  0  0  0  0  0  0  0  0
   10.4356    9.5194   -3.7704 C   0  0  0  0  0  0  0  0  0  0  0  0
    8.3158    7.6137   -5.2304 C   0  0  0  0  0  0  0  0  0  0  0  0
    7.5848    2.4738    1.5955 C   0  0  0  0  0  0  0  0  0  0  0  0
    9.1714    3.4726    0.9715 C   0  0  0  0  0  0  0  0  0  0  0  0
    9.1077    5.4177    1.3400 C   0  0  0  0  0  0  0  0  0  0  0  0
    7.4311    6.2082    0.5785 C   0  0  0  0  0  0  0  0  0  0  0  0
    5.8856    5.2310    1.3045 C   0  0  0  0  0  0  0  0  0  0  0  0
   10.8283    2.6533    1.6345 C   0  0  0  0  0  0  0  0  0  0  0  0
   12.3839    3.4802    0.7747 C   0  0  0  0  0  0  0  0  0  0  0  0
   12.3922    5.4104    1.1233 C   0  0  0  0  0  0  0  0  0  0  0  0
   10.7210    6.2475    0.5515 C   0  0  0  0  0  0  0  0  0  0  0  0
   14.0983    2.6311    1.3127 C   0  0  0  0  0  0  0  0  0  0  0  0
   15.3750    3.4619    0.2648 O   0  0  0  0  0  0  0  0  0  0  0  0
   14.0866    0.7046    0.9029 C   0  0  0  0  0  0  0  0  0  0  0  0
   14.5405    2.8951    3.2096 C   0  0  0  0  0  0  0  0  0  0  0  0
    9.1227    5.8008    3.2737 C   0  0  0  0  0  0  0  0  0  0  0  0
    7.4304    2.3352    3.4170 O   0  0  0  0  0  0  0  0  0  0  0  0
    2.4440    3.2430   -6.4022 H   0  0  0  0  0  0  0  0  0  0  0  0
    0.7089    4.3742   -5.1409 H   0  0  0  0  0  0  0  0  0  0  0  0
    0.0000    7.8707   -3.1407 H   0  0  0  0  0  0  0  0  0  0  0  0
    5.4659    8.6231   -0.2712 H   0  0  0  0  0  0  0  0  0  0  0  0
    6.4900    2.6572   -4.2936 H   0  0  0  0  0  0  0  0  0  0  0  0
    8.2705    5.2885   -1.9113 H   0  0  0  0  0  0  0  0  0  0  0  0
    4.7996    2.6804    1.5702 H   0  0  0  0  0  0  0  0  0  0  0  0
    5.8558    3.0872   -0.4874 H   0  0  0  0  0  0  0  0  0  0  0  0
    8.9412    8.6642   -0.9447 H   0  0  0  0  0  0  0  0  0  0  0  0
    7.1166    9.0081   -2.3459 H   0  0  0  0  0  0  0  0  0  0  0  0
   10.2306    6.7728   -3.4125 H   0  0  0  0  0  0  0  0  0  0  0  0
   11.2720    9.4274   -4.9390 H   0  0  0  0  0  0  0  0  0  0  0  0
   11.2803    9.6821   -2.6152 H   0  0  0  0  0  0  0  0  0  0  0  0
    9.6016   10.6866   -3.8967 H   0  0  0  0  0  0  0  0  0  0  0  0
    9.2030    7.4794   -6.3569 H   0  0  0  0  0  0  0  0  0  0  0  0
    7.4249    8.7171   -5.4808 H   0  0  0  0  0  0  0  0  0  0  0  0
    7.5345    6.4076   -5.1136 H   0  0  0  0  0  0  0  0  0  0  0  0
    7.6721    1.1212    1.0542 H   0  0  0  0  0  0  0  0  0  0  0  0
    9.1691    3.3205   -0.4802 H   0  0  0  0  0  0  0  0  0  0  0  0
    7.3595    7.5647    1.1092 H   0  0  0  0  0  0  0  0  0  0  0  0
    5.8398    5.4291    2.7396 H   0  0  0  0  0  0  0  0  0  0  0  0
    4.6551    5.7832    0.7807 H   0  0  0  0  0  0  0  0  0  0  0  0
   10.7971    1.2364    1.3432 H   0  0  0  0  0  0  0  0  0  0  0  0
   10.9224    2.8063    3.0694 H   0  0  0  0  0  0  0  0  0  0  0  0
   12.2692    3.2870   -0.6639 H   0  0  0  0  0  0  0  0  0  0  0  0
   13.4978    6.0088    0.4040 H   0  0  0  0  0  0  0  0  0  0  0  0
   12.6164    5.6569    2.5301 H   0  0  0  0  0  0  0  0  0  0  0  0
   10.7510    7.6472    0.9177 H   0  0  0  0  0  0  0  0  0  0  0  0
   10.6528    6.1674   -0.8907 H   0  0  0  0  0  0  0  0  0  0  0  0
   16.4720    2.9672    0.5772 H   0  0  0  0  0  0  0  0  0  0  0  0
   15.4214    0.1724    1.0023 H   0  0  0  0  0  0  0  0  0  0  0  0
   13.6060    0.4823   -0.4353 H   0  0  0  0  0  0  0  0  0  0  0  0
   13.2440    0.0000    1.8313 H   0  0  0  0  0  0  0  0  0  0  0  0
   15.7183    2.1384    3.5492 H   0  0  0  0  0  0  0  0  0  0  0  0
   13.4560    2.4558    4.0453 H   0  0  0  0  0  0  0  0  0  0  0  0
   14.8046    4.2861    3.4709 H   0  0  0  0  0  0  0  0  0  0  0  0
    8.9483    7.2131    3.4986 H   0  0  0  0  0  0  0  0  0  0  0  0
   10.3757    5.4060    3.8623 H   0  0  0  0  0  0  0  0  0  0  0  0
    8.0755    5.0881    3.9585 H   0  0  0  0  0  0  0  0  0  0  0  0
    8.5155    1.9018    3.8420 H   0  0  0  0  0  0  0  0  0  0  0  0
  1  2  2  0  0  0  0
  1  6  1  0  0  0  0
  1  8  1  0  0  0  0
  2  3  1  1  0  0  0
  2  9  1  0  0  0  0
  3  4  2  0  0  0  0
  3 10  1  1  0  0  0
  4  5  1  6  0  0  0
  4 14  1  0  0  0  0
  5  6  2  0  0  0  0
  5 11  1  0  0  0  0
  6  7  1  6  0  0  0
  7 12  2  0  0  0  0
  7 35  1  6  0  0  0
  8 36  1  0  0  0  0
  9 13  2  0  0  0  0
  9 37  1  0  0  0  0
 10 38  1  1  0  0  0
 11 39  1  6  0  0  0
 14 16  1  0  0  0  0
 14 23  1  1  0  0  0
 14 40  1  0  0  0  0
 15 20  1  0  0  0  0
 15 24  1  0  0  0  0
 15 41  1  0  0  0  0
 15 42  1  6  0  0  0
 16 17  1  6  0  0  0
 16 43  1  1  0  0  0
 16 44  1  0  0  0  0
 17 18  1  0  0  0  0
 17 19  1  6  0  0  0
 17 45  1  0  0  0  0
 18 46  1  6  0  0  0
 18 47  1  1  0  0  0
 18 48  1  0  0  0  0
 19 49  1  6  0  0  0
 19 50  1  0  0  0  0
 19 51  1  0  0  0  0
 20 21  1  0  0  0  0
 20 34  1  1  0  0  0
 20 52  1  0  0  0  0
 21 22  1  0  0  0  0
 21 25  1  0  0  0  0
 21 53  1  6  0  0  0
 22 23  1  0  0  0  0
 22 28  1  0  0  0  0
 22 33  1  1  0  0  0
 23 24  1  0  0  0  0
 23 54  1  0  0  0  0
 24 55  1  1  0  0  0
 24 56  1  0  0  0  0
 25 26  1  0  0  0  0
 25 57  1  0  0  0  0
 25 58  1  1  0  0  0
 26 27  1  0  0  0  0
 26 29  1  0  0  0  0
 26 59  1  6  0  0  0
 27 28  1  0  0  0  0
 27 60  1  6  0  0  0
 27 61  1  1  0  0  0
 28 62  1  0  0  0  0
 28 63  1  6  0  0  0
 29 30  1  6  0  0  0
 29 31  1  0  0  0  0
 29 32  1  1  0  0  0
 30 64  1  0  0  0  0
 31 65  1  0  0  0  0
 31 66  1  6  0  0  0
 31 67  1  1  0  0  0
 32 68  1  0  0  0  0
 32 69  1  1  0  0  0
 32 70  1  0  0  0  0
 33 71  1  0  0  0  0
 33 72  1  0  0  0  0
 33 73  1  1  0  0  0
 34 74  1  0  0  0  0
M  END
>  <Formula> (211)
C27H40O7

>  <Name> (211)
2,4,6-TRIHYDROXY-5-{1-[4-HYDROXY-6-(1-HYDROXY-1-METHYL-ETHYL)-8A-METHYL-DECAHYDRO-NAPHTHALEN-1-YL]-3-METHYL-BUTYL}-BENZENE-1,3-DICARBALDEHYDE

>  <Compound classification> (211)
Terpene related

>  <Microorganism> (211)
Streptococcus sobrinus

>  <Microorganism type> (211)
ATCC 6715

>  <Microorganism classification> (211)
Bac+

>  <MIC> (211)
100

>  <Method abbreviation> (211)
SDT

>  <Ref-Nr> (211)
6579

>  <Marker> (211)
0

>  <Method> (211)
Serial dilution test; Inoculum size: 1-2X10E5 cfu/ml; Medium: brain heart infusion, trypticase soy broth plus hemin (aerobic or anaerobic growth conditions); pH: ---; Incubation-temperature: 37 degrees Centigrade; Incubation-time: 24h; Solubility enhancer: ethanol

>  <Reference> (211)
Osawa, K., Yasuda, H., Morita, H., Takeya, K., Itokawa, H.: Macrocarpals H, I, and J from the Leaves of Eucalyptus globulus; Journal of Natural Products 59, 823-7 (1996)

>  <mol_id> (211)
2998

>  <MolWeight> (211)
476.60

>  <Nickname> (211)
Macrocarpal I (alpha-Hydroxy, beta-methyl)

$$$$

csChmFindW11180110282D

 74 76  0  0  0  0  0  0  0  0999 V2000
    2.4633    5.6439   -3.9194 C   0  0  0  0  0  0  0  0  0  0  0  0
    2.6674    7.0476   -2.7931 C   0  0  0  0  0  0  0  0  0  0  0  0
    4.2798    7.2538   -1.9555 C   0  0  0  0  0  0  0  0  0  0  0  0
    5.6599    6.0991   -2.2114 C   0  0  0  0  0  0  0  0  0  0  0  0
    5.3831    4.6924   -3.3406 C   0  0  0  0  0  0  0  0  0  0  0  0
    3.8113    4.4601   -4.2498 C   0  0  0  0  0  0  0  0  0  0  0  0
    3.5878    3.1104   -5.5389 C   0  0  0  0  0  0  0  0  0  0  0  0
    0.8700    5.5226   -4.6799 O   0  0  0  0  0  0  0  0  0  0  0  0
    1.2308    8.2489   -2.5006 C   0  0  0  0  0  0  0  0  0  0  0  0
    4.3649    8.6326   -0.8700 O   0  0  0  0  0  0  0  0  0  0  0  0
    6.7458    3.5918   -3.4981 O   0  0  0  0  0  0  0  0  0  0  0  0
    4.5830    1.8804   -5.7546 O   0  0  0  0  0  0  0  0  0  0  0  0
    1.3357    9.5741   -1.6308 O   0  0  0  0  0  0  0  0  0  0  0  0
    7.4082    6.3501   -1.4077 C   0  0  0  0  0  0  0  0  0  0  0  0
    5.9346    3.3174    0.9401 C   0  0  0  0  0  0  0  0  0  0  0  0
    8.1729    8.0729   -2.0208 C   0  0  0  0  0  0  0  0  0  0  0  0
    9.3406    7.9078   -3.5950 C   0  0  0  0  0  0  0  0  0  0  0  0
   10.4356    9.5194   -3.7704 C   0  0  0  0  0  0  0  0  0  0  0  0
    8.3158    7.6137   -5.2304 C   0  0  0  0  0  0  0  0  0  0  0  0
    7.5848    2.4738    1.5955 C   0  0  0  0  0  0  0  0  0  0  0  0
    9.1714    3.4726    0.9715 C   0  0  0  0  0  0  0  0  0  0  0  0
    9.1077    5.4177    1.3400 C   0  0  0  0  0  0  0  0  0  0  0  0
    7.4311    6.2082    0.5785 C   0  0  0  0  0  0  0  0  0  0  0  0
    5.8856    5.2310    1.3045 C   0  0  0  0  0  0  0  0  0  0  0  0
   10.8283    2.6533    1.6345 C   0  0  0  0  0  0  0  0  0  0  0  0
   12.3839    3.4802    0.7747 C   0  0  0  0  0  0  0  0  0  0  0  0
   12.3922    5.4104    1.1233 C   0  0  0  0  0  0  0  0  0  0  0  0
   10.7210    6.2475    0.5515 C   0  0  0  0  0  0  0  0  0  0  0  0
   14.0983    2.6311    1.3127 C   0  0  0  0  0  0  0  0  0  0  0  0
   15.3750    3.4619    0.2648 O   0  0  0  0  0  0  0  0  0  0  0  0
   14.0866    0.7046    0.9029 C   0  0  0  0  0  0  0  0  0  0  0  0
   14.5405    2.8951    3.2096 C   0  0  0  0  0  0  0  0  0  0  0  0
    9.1227    5.8008    3.2737 C   0  0  0  0  0  0  0  0  0  0  0  0
    7.4304    2.3352    3.4170 O   0  0  0  0  0  0  0  0  0  0  0  0
    2.4440    3.2430   -6.4022 H   0  0  0  0  0  0  0  0  0  0  0  0
    0.7089    4.3742   -5.1409 H   0  0  0  0  0  0  0  0  0  0  0  0
    0.0000    7.8707   -3.1407 H   0  0  0  0  0  0  0  0  0  0  0  0
    5.4659    8.6231   -0.2712 H   0  0  0  0  0  0  0  0  0  0  0  0
    6.4900    2.6572   -4.2936 H   0  0  0  0  0  0  0  0  0  0  0  0
    8.2705    5.2885   -1.9113 H   0  0  0  0  0  0  0  0  0  0  0  0
    4.7996    2.6804    1.5702 H   0  0  0  0  0  0  0  0  0  0  0  0
    5.8558    3.0872   -0.4874 H   0  0  0  0  0  0  0  0  0  0  0  0
    8.9412    8.6642   -0.9447 H   0  0  0  0  0  0  0  0  0  0  0  0
    7.1166    9.0081   -2.3459 H   0  0  0  0  0  0  0  0  0  0  0  0
   10.2306    6.7728   -3.4125 H   0  0  0  0  0  0  0  0  0  0  0  0
   11.2720    9.4274   -4.9390 H   0  0  0  0  0  0  0  0  0  0  0  0
   11.2803    9.6821   -2.6152 H   0  0  0  0  0  0  0  0  0  0  0  0
    9.6016   10.6866   -3.8967 H   0  0  0  0  0  0  0  0  0  0  0  0
    9.2030    7.4794   -6.3569 H   0  0  0  0  0  0  0  0  0  0  0  0
    7.4249    8.7171   -5.4808 H   0  0  0  0  0  0  0  0  0  0  0  0
    7.5345    6.4076   -5.1136 H   0  0  0  0  0  0  0  0  0  0  0  0
    7.6721    1.1212    1.0542 H   0  0  0  0  0  0  0  0  0  0  0  0
    9.1691    3.3205   -0.4802 H   0  0  0  0  0  0  0  0  0  0  0  0
    7.3595    7.5647    1.1092 H   0  0  0  0  0  0  0  0  0  0  0  0
    5.8398    5.4291    2.7396 H   0  0  0  0  0  0  0  0  0  0  0  0
    4.6551    5.7832    0.7807 H   0  0  0  0  0  0  0  0  0  0  0  0
   10.7971    1.2364    1.3432 H   0  0  0  0  0  0  0  0  0  0  0  0
   10.9224    2.8063    3.0694 H   0  0  0  0  0  0  0  0  0  0  0  0
   12.2692    3.2870   -0.6639 H   0  0  0  0  0  0  0  0  0  0  0  0
   13.4978    6.0088    0.4040 H   0  0  0  0  0  0  0  0  0  0  0  0
   12.6164    5.6569    2.5301 H   0  0  0  0  0  0  0  0  0  0  0  0
   10.7510    7.6472    0.9177 H   0  0  0  0  0  0  0  0  0  0  0  0
   10.6528    6.1674   -0.8907 H   0  0  0  0  0  0  0  0  0  0  0  0
   16.4720    2.9672    0.5772 H   0  0  0  0  0  0  0  0  0  0  0  0
   15.4214    0.1724    1.0023 H   0  0  0  0  0  0  0  0  0  0  0  0
   13.6060    0.4823   -0.4353 H   0  0  0  0  0  0  0  0  0  0  0  0
   13.2440    0.0000    1.8313 H   0  0  0  0  0  0  0  0  0  0  0  0
   15.7183    2.1384    3.5492 H   0  0  0  0  0  0  0  0  0  0  0  0
   13.4560    2.4558    4.0453 H   0  0  0  0  0  0  0  0  0  0  0  0
   14.8046    4.2861    3.4709 H   0  0  0  0  0  0  0  0  0  0  0  0
    8.9483    7.2131    3.4986 H   0  0  0  0  0  0  0  0  0  0  0  0
   10.3757    5.4060    3.8623 H   0  0  0  0  0  0  0  0  0  0  0  0
    8.0755    5.0881    3.9585 H   0  0  0  0  0  0  0  0  0  0  0  0
    8.5155    1.9018    3.8420 H   0  0  0  0  0  0  0  0  0  0  0  0
  1  2  2  0  0  0  0
  1  6  1  0  0  0  0
  1  8  1  0  0  0  0
  2  3  1  1  0  0  0
  2  9  1  0  0  0  0
  3  4  2  0  0  0  0
  3 10  1  1  0  0  0
  4  5  1  6  0  0  0
  4 14  1  0  0  0  0
  5  6  2  0  0  0  0
  5 11  1  0  0  0  0
  6  7  1  6  0  0  0
  7 12  2  0  0  0  0
  7 35  1  6  0  0  0
  8 36  1  0  0  0  0
  9 13  2  0  0  0  0
  9 37  1  0  0  0  0
 10 38  1  1  0  0  0
 11 39  1  6  0  0  0
 14 16  1  0  0  0  0
 14 23  1  1  0  0  0
 14 40  1  0  0  0  0
 15 20  1  0  0  0  0
 15 24  1  0  0  0  0
 15 41  1  0  0  0  0
 15 42  1  6  0  0  0
 16 17  1  6  0  0  0
 16 43  1  1  0  0  0
 16 44  1  0  0  0  0
 17 18  1  0  0  0  0
 17 19  1  6  0  0  0
 17 45  1  0  0  0  0
 18 46  1  6  0  0  0
 18 47  1  1  0  0  0
 18 48  1  0  0  0  0
 19 49  1  6  0  0  0
 19 50  1  0  0  0  0
 19 51  1  0  0  0  0
 20 21  1  0  0  0  0
 20 34  1  1  0  0  0
 20 52  1  0  0  0  0
 21 22  1  0  0  0  0
 21 25  1  0  0  0  0
 21 53  1  6  0  0  0
 22 23  1  0  0  0  0
 22 28  1  0  0  0  0
 22 33  1  1  0  0  0
 23 24  1  0  0  0  0
 23 54  1  0  0  0  0
 24 55  1  1  0  0  0
 24 56  1  0  0  0  0
 25 26  1  0  0  0  0
 25 57  1  0  0  0  0
 25 58  1  1  0  0  0
 26 27  1  0  0  0  0
 26 29  1  0  0  0  0
 26 59  1  6  0  0  0
 27 28  1  0  0  0  0
 27 60  1  6  0  0  0
 27 61  1  1  0  0  0
 28 62  1  0  0  0  0
 28 63  1  6  0  0  0
 29 30  1  6  0  0  0
 29 31  1  0  0  0  0
 29 32  1  1  0  0  0
 30 64  1  0  0  0  0
 31 65  1  0  0  0  0
 31 66  1  6  0  0  0
 31 67  1  1  0  0  0
 32 68  1  0  0  0  0
 32 69  1  1  0  0  0
 32 70  1  0  0  0  0
 33 71  1  0  0  0  0
 33 72  1  0  0  0  0
 33 73  1  1  0  0  0
 34 74  1  0  0  0  0
M  END
>  <Formula> (212)
C27H40O7

>  <Name> (212)
2,4,6-TRIHYDROXY-5-{1-[4-HYDROXY-6-(1-HYDROXY-1-METHYL-ETHYL)-8A-METHYL-DECAHYDRO-NAPHTHALEN-1-YL]-3-METHYL-BUTYL}-BENZENE-1,3-DICARBALDEHYDE

>  <Compound classification> (212)
Terpene related

>  <Microorganism> (212)
Capnocytophaga ochracea

>  <Microorganism type> (212)
ATCC 33596

>  <Microorganism classification> (212)
Bac-

>  <MIC> (212)
12.5

>  <Method abbreviation> (212)
SDT

>  <Ref-Nr> (212)
6579

>  <Marker> (212)
0

>  <Method> (212)
Serial dilution test; Inoculum size: 1-2X10E5 cfu/ml; Medium: brain heart infusion, trypticase soy broth plus hemin (aerobic or anaerobic growth conditions); pH: ---; Incubation-temperature: 37 degrees Centigrade; Incubation-time: 24h; Solubility enhancer: ethanol

>  <Reference> (212)
Osawa, K., Yasuda, H., Morita, H., Takeya, K., Itokawa, H.: Macrocarpals H, I, and J from the Leaves of Eucalyptus globulus; Journal of Natural Products 59, 823-7 (1996)

>  <mol_id> (212)
2998

>  <MolWeight> (212)
476.60

>  <Nickname> (212)
Macrocarpal I (alpha-Hydroxy, beta-methyl)

$$$$

csChmFindW11180110282D

 16 15  0  0  0  0  0  0  0  0999 V2000
    6.1027    3.0562    0.0279 C   0  0  0  0  0  0  0  0  0  0  0  0
    4.5092    2.1912    0.0271 C   0  0  0  0  0  0  0  0  0  0  0  0
    7.5772    2.2467    0.0190 C   0  0  0  0  0  0  0  0  0  0  0  0
    3.0341    3.0022    0.0360 C   0  0  0  0  0  0  0  0  0  0  0  0
    9.2077    3.1183    0.0168 C   0  0  0  0  0  0  0  0  0  0  0  0
    1.4142    2.1499    0.0353 C   0  0  0  0  0  0  0  0  0  0  0  0
    0.0000    2.7838    0.0460 O   0  0  0  0  0  0  0  0  0  0  0  0
    1.4690    0.4367    0.0213 O   0  0  0  0  0  0  0  0  0  0  0  0
    6.0552    4.4386    0.0365 H   0  0  0  0  0  0  0  0  0  0  0  0
    4.5470    0.8050    0.0185 H   0  0  0  0  0  0  0  0  0  0  0  0
    7.6265    0.8648    0.0105 H   0  0  0  0  0  0  0  0  0  0  0  0
    2.9370    4.3803    0.0447 H   0  0  0  0  0  0  0  0  0  0  0  0
   10.2671    2.2031    0.0397 H   0  0  0  0  0  0  0  0  0  0  0  0
    9.3236    3.9541    1.1372 H   0  0  0  0  0  0  0  0  0  0  0  0
    9.3389    3.9139   -1.1311 H   0  0  0  0  0  0  0  0  0  0  0  0
    0.3331    0.0000    0.0221 H   0  0  0  0  0  0  0  0  0  0  0  0
  1  2  1  0  0  0  0
  1  3  2  0  0  0  0
  1  9  1  0  0  0  0
  2  4  2  0  0  0  0
  2 10  1  0  0  0  0
  3  5  1  0  0  0  0
  3 11  1  0  0  0  0
  4  6  1  0  0  0  0
  4 12  1  0  0  0  0
  5 13  1  0  0  0  0
  5 14  1  1  0  0  0
  5 15  1  6  0  0  0
  6  7  2  0  0  0  0
  6  8  1  0  0  0  0
  8 16  1  0  0  0  0
M  END
>  <Formula> (213)
C6H8O2

>  <Name> (213)
(E,E)-2,4-HEXADIENOIC ACID

>  <CAS-Nr> (213)
110-44-1

>  <EINECS> (213)
203-768-7

>  <21 CFR> (213)
133.118, 150.161, 182.3089, 150.141, 166.110, 177.2260, 133.123, 133.124, 133.169, 133.173, 133.179, 133.187, 133.188, 172.872, 181.23

>  <LD50-rat-oral> (213)
7360

>  <Compound classification> (213)
Ali-COOH

>  <Microorganism> (213)
Aspergillus fresenii

>  <Microorganism type> (213)
NRRL 4077

>  <Publication strain name> (213)
Aspergillus sulphureus

>  <Microorganism classification> (213)
fungi

>  <MIC> (213)
1300

>  <Annotation> (213)
K-salt, pH=4.5

>  <Method abbreviation> (213)
SDT

>  <Ref-Nr> (213)
6585

>  <Marker> (213)
0

>  <Method> (213)
Serial dilution test; Inoculum size: 10E7 spores/ml; Medium: yeast extract broth; pH: adjusted; Incubation-temperature: 28 degrees Centigrade; Incubation-time: 14d; Solubility enhancer: ethanol

>  <Reference> (213)
Tong, C.H., Draughon, F.A.: Inhibition by Antimicrobial Food Additives of Ochratoxin A Production by Aspergillus sulphureus and Penicillium viridicatum; Applied and Environmental Microbiology 49, 1407-11 (1985)

>  <mol_id> (213)
203

>  <LD50-mouse-oral> (213)
3200

>  <LD50-mou-ip> (213)
2820

>  <MolWeight> (213)
112.12

>  <Nickname> (213)
Sorbic acid

$$$$

csChmFindW11180110282D

 16 15  0  0  0  0  0  0  0  0999 V2000
    6.1027    3.0562    0.0279 C   0  0  0  0  0  0  0  0  0  0  0  0
    4.5092    2.1912    0.0271 C   0  0  0  0  0  0  0  0  0  0  0  0
    7.5772    2.2467    0.0190 C   0  0  0  0  0  0  0  0  0  0  0  0
    3.0341    3.0022    0.0360 C   0  0  0  0  0  0  0  0  0  0  0  0
    9.2077    3.1183    0.0168 C   0  0  0  0  0  0  0  0  0  0  0  0
    1.4142    2.1499    0.0353 C   0  0  0  0  0  0  0  0  0  0  0  0
    0.0000    2.7838    0.0460 O   0  0  0  0  0  0  0  0  0  0  0  0
    1.4690    0.4367    0.0213 O   0  0  0  0  0  0  0  0  0  0  0  0
    6.0552    4.4386    0.0365 H   0  0  0  0  0  0  0  0  0  0  0  0
    4.5470    0.8050    0.0185 H   0  0  0  0  0  0  0  0  0  0  0  0
    7.6265    0.8648    0.0105 H   0  0  0  0  0  0  0  0  0  0  0  0
    2.9370    4.3803    0.0447 H   0  0  0  0  0  0  0  0  0  0  0  0
   10.2671    2.2031    0.0397 H   0  0  0  0  0  0  0  0  0  0  0  0
    9.3236    3.9541    1.1372 H   0  0  0  0  0  0  0  0  0  0  0  0
    9.3389    3.9139   -1.1311 H   0  0  0  0  0  0  0  0  0  0  0  0
    0.3331    0.0000    0.0221 H   0  0  0  0  0  0  0  0  0  0  0  0
  1  2  1  0  0  0  0
  1  3  2  0  0  0  0
  1  9  1  0  0  0  0
  2  4  2  0  0  0  0
  2 10  1  0  0  0  0
  3  5  1  0  0  0  0
  3 11  1  0  0  0  0
  4  6  1  0  0  0  0
  4 12  1  0  0  0  0
  5 13  1  0  0  0  0
  5 14  1  1  0  0  0
  5 15  1  6  0  0  0
  6  7  2  0  0  0  0
  6  8  1  0  0  0  0
  8 16  1  0  0  0  0
M  END
>  <Formula> (214)
C6H8O2

>  <Name> (214)
(E,E)-2,4-HEXADIENOIC ACID

>  <CAS-Nr> (214)
110-44-1

>  <EINECS> (214)
203-768-7

>  <21 CFR> (214)
133.118, 150.161, 182.3089, 150.141, 166.110, 177.2260, 133.123, 133.124, 133.169, 133.173, 133.179, 133.187, 133.188, 172.872, 181.23

>  <LD50-rat-oral> (214)
7360

>  <Compound classification> (214)
Ali-COOH

>  <Microorganism> (214)
Aspergillus fresenii

>  <Microorganism type> (214)
NRRL 4077

>  <Publication strain name> (214)
Aspergillus sulphureus

>  <Microorganism classification> (214)
fungi

>  <MIC> (214)
1300

>  <Annotation> (214)
K-salt, pH=5.5

>  <Method abbreviation> (214)
SDT

>  <Ref-Nr> (214)
6585

>  <Marker> (214)
0

>  <Method> (214)
Serial dilution test; Inoculum size: 10E7 spores/ml; Medium: yeast extract broth; pH: adjusted; Incubation-temperature: 28 degrees Centigrade; Incubation-time: 14d; Solubility enhancer: ethanol

>  <Reference> (214)
Tong, C.H., Draughon, F.A.: Inhibition by Antimicrobial Food Additives of Ochratoxin A Production by Aspergillus sulphureus and Penicillium viridicatum; Applied and Environmental Microbiology 49, 1407-11 (1985)

>  <mol_id> (214)
203

>  <LD50-mouse-oral> (214)
3200

>  <LD50-mou-ip> (214)
2820

>  <MolWeight> (214)
112.12

>  <Nickname> (214)
Sorbic acid

$$$$

csChmFindW11180110282D

 37 38  0  0  0  0  0  0  0  0999 V2000
    9.8127    7.7069    2.5628 C   0  0  0  0  0  0  0  0  0  0  0  0
   11.5933    6.6576    2.3889 N   0  0  0  0  0  0  0  0  0  0  0  0
    8.1971    6.5258    2.5242 C   0  0  0  0  0  0  0  0  0  0  0  0
    8.8153    4.4412    2.2239 C   0  0  0  0  0  0  0  0  0  0  0  0
   11.0372    4.5379    2.2487 C   0  0  0  0  0  0  0  0  0  0  0  0
   12.1357    4.3818    0.2887 C   0  0  0  0  0  0  0  0  0  0  0  0
   12.5519    6.5718    0.4963 C   0  0  0  0  0  0  0  0  0  0  0  0
    9.7642    9.8085    2.8524 C   0  0  0  0  0  0  0  0  0  0  0  0
    8.3067   10.8525    2.9509 O   0  0  0  0  0  0  0  0  0  0  0  0
   11.5079   10.7115    3.0392 O   0  0  0  0  0  0  0  0  0  0  0  0
   13.3784    7.7913   -0.4728 O   0  0  0  0  0  0  0  0  0  0  0  0
    2.4726    5.5926    2.9702 C   0  0  0  0  0  0  0  0  0  0  0  0
    4.6011    5.0302    2.7190 C   0  0  0  0  0  0  0  0  0  0  0  0
    0.6866    3.6216    0.6658 C   0  0  0  0  0  0  0  0  0  0  0  0
    0.4431    1.8777    0.0285 N   0  0  0  0  0  0  0  0  0  0  0  0
    1.0873    4.0697    2.6213 N   0  0  0  0  0  0  0  0  0  0  0  0
    5.9142    7.2204    2.7815 S   0  0  0  0  0  0  0  0  0  0  0  0
   13.2759    0.9543    0.5084 C   0  0  0  0  0  0  0  0  0  0  0  0
   13.8940    3.0592    0.3160 C   0  0  0  0  0  0  0  0  0  0  0  0
   15.0559    3.3308   -1.3543 O   0  0  0  0  0  0  0  0  0  0  0  0
    8.2512    3.8633    0.8180 H   0  0  0  0  0  0  0  0  0  0  0  0
    8.2771    3.4943    3.4249 H   0  0  0  0  0  0  0  0  0  0  0  0
   11.6858    3.6721    3.4489 H   0  0  0  0  0  0  0  0  0  0  0  0
   11.1878    4.0677   -0.9824 H   0  0  0  0  0  0  0  0  0  0  0  0
   11.2868   12.0939    3.2082 H   0  0  0  0  0  0  0  0  0  0  0  0
    2.1361    6.8527    1.9829 H   0  0  0  0  0  0  0  0  0  0  0  0
    2.2441    6.0893    4.5128 H   0  0  0  0  0  0  0  0  0  0  0  0
    4.8303    4.2545    1.3153 H   0  0  0  0  0  0  0  0  0  0  0  0
    5.0585    4.0258    3.9038 H   0  0  0  0  0  0  0  0  0  0  0  0
    0.5106    4.9675   -0.2203 H   0  0  0  0  0  0  0  0  0  0  0  0
    0.0000    1.8051   -1.3449 H   0  0  0  0  0  0  0  0  0  0  0  0
    1.2853    2.9193    3.4862 H   0  0  0  0  0  0  0  0  0  0  0  0
   14.5813    0.0000    0.4393 H   0  0  0  0  0  0  0  0  0  0  0  0
   12.2734    0.5392   -0.6918 H   0  0  0  0  0  0  0  0  0  0  0  0
   12.5264    0.7179    1.9210 H   0  0  0  0  0  0  0  0  0  0  0  0
   14.8873    3.4750    1.5484 H   0  0  0  0  0  0  0  0  0  0  0  0
   14.2916    2.9667   -2.4677 H   0  0  0  0  0  0  0  0  0  0  0  0
  1  2  1  0  0  0  0
  1  3  2  0  0  0  0
  1  8  1  0  0  0  0
  2  5  1  0  0  0  0
  2  7  1  6  0  0  0
  3  4  1  0  0  0  0
  3 17  1  0  0  0  0
  4  5  1  0  0  0  0
  4 21  1  6  0  0  0
  4 22  1  1  0  0  0
  5  6  1  6  0  0  0
  5 23  1  1  0  0  0
  6  7  1  0  0  0  0
  6 19  1  0  0  0  0
  6 24  1  6  0  0  0
  7 11  2  0  0  0  0
  8  9  2  0  0  0  0
  8 10  1  0  0  0  0
 10 25  1  0  0  0  0
 12 13  1  0  0  0  0
 12 16  1  0  0  0  0
 12 26  1  6  0  0  0
 12 27  1  1  0  0  0
 13 17  1  0  0  0  0
 13 28  1  6  0  0  0
 13 29  1  1  0  0  0
 14 15  2  0  0  0  0
 14 16  1  1  0  0  0
 14 30  1  6  0  0  0
 15 31  1  6  0  0  0
 16 32  1  1  0  0  0
 18 19  1  0  0  0  0
 18 33  1  0  0  0  0
 18 34  1  6  0  0  0
 18 35  1  1  0  0  0
 19 20  1  6  0  0  0
 19 36  1  1  0  0  0
 20 37  1  6  0  0  0
M  END
>  <Formula> (215)
C12H17N3O4S

>  <Name> (215)
(5R-(5-ALPHA,6-ALPHA(R*)))-6-(1-HYDROXYETHYL)-3-((2-((IMINOMETHYL)AMINO)ETHYL)THIO)-7-OXO-1-AZABICYCLO(3.2.0)HEPT-2-ENE-2-CARBOXYLIC ACID

>  <CAS-Nr> (215)
64221-86-9

>  <EINECS> (215)
264-734-5

>  <LD50-rat-oral> (215)
>5000

>  <Compound classification> (215)
AB-bLac

>  <Microorganism> (215)
Clostridium perfringens

>  <Microorganism type> (215)
miscellaneous

>  <Microorganism classification> (215)
Bac+

>  <MIC> (215)
0.016

>  <Annotation> (215)
range 0,016 - 0,125 ppm

>  <Method abbreviation> (215)
SDT

>  <Ref-Nr> (215)
6665

>  <Marker> (215)
0

>  <Method> (215)
Serial dilution test; Inoculum size: ---; Medium: basic medium in air (Enterobacteriaceae, Pseudomonas, Acinetobacter, Staphylococcus, Enterococcus), basic medium + 5% defibrinated horse blood - in 5 % CO2 (Streptococcus, Pneumococcus), basic medium +1 % hemoglobin + 1 % IsoVitaleX - in 5 % CO2 (Haemophilus influenzae, Moraxella catarrhalis); pH: ---; Incubation-temperature: 35-37 degrees Centigrade; Incubation-time: ---; Solubility enhancer: ---

>  <Reference> (215)
Kahlmeter, G., Olsson-Liljequist, B.: Antibiotics - MICs of Isolates that Lack Resistance Mechanisms; Landstinget Kronoberg (http://www.ltkronoberg.se) (1998)

>  <mol_id> (215)
2161

>  <LD50-mouse-oral> (215)
>5000

>  <MolWeight> (215)
299.34

>  <Nickname> (215)
Imipenem

>  <other Names> (215)
Primaxin, (5R,6S)-3-((2-(Formimidoylamino)ethyl)thio)-6-((R)-1-hydroxyethyl)-7-oxo-1-azabicyclo(3.2.0)hept-2-ene-2-carboxylic acid monohydrate, Imipenem, MK 0787, N-Formimidoylthienamycin, MK-787

>  <LD50-mou-iv> (215)
1660

$$$$

csChmFindW11180110282D

 37 38  0  0  0  0  0  0  0  0999 V2000
    9.8127    7.7069    2.5628 C   0  0  0  0  0  0  0  0  0  0  0  0
   11.5933    6.6576    2.3889 N   0  0  0  0  0  0  0  0  0  0  0  0
    8.1971    6.5258    2.5242 C   0  0  0  0  0  0  0  0  0  0  0  0
    8.8153    4.4412    2.2239 C   0  0  0  0  0  0  0  0  0  0  0  0
   11.0372    4.5379    2.2487 C   0  0  0  0  0  0  0  0  0  0  0  0
   12.1357    4.3818    0.2887 C   0  0  0  0  0  0  0  0  0  0  0  0
   12.5519    6.5718    0.4963 C   0  0  0  0  0  0  0  0  0  0  0  0
    9.7642    9.8085    2.8524 C   0  0  0  0  0  0  0  0  0  0  0  0
    8.3067   10.8525    2.9509 O   0  0  0  0  0  0  0  0  0  0  0  0
   11.5079   10.7115    3.0392 O   0  0  0  0  0  0  0  0  0  0  0  0
   13.3784    7.7913   -0.4728 O   0  0  0  0  0  0  0  0  0  0  0  0
    2.4726    5.5926    2.9702 C   0  0  0  0  0  0  0  0  0  0  0  0
    4.6011    5.0302    2.7190 C   0  0  0  0  0  0  0  0  0  0  0  0
    0.6866    3.6216    0.6658 C   0  0  0  0  0  0  0  0  0  0  0  0
    0.4431    1.8777    0.0285 N   0  0  0  0  0  0  0  0  0  0  0  0
    1.0873    4.0697    2.6213 N   0  0  0  0  0  0  0  0  0  0  0  0
    5.9142    7.2204    2.7815 S   0  0  0  0  0  0  0  0  0  0  0  0
   13.2759    0.9543    0.5084 C   0  0  0  0  0  0  0  0  0  0  0  0
   13.8940    3.0592    0.3160 C   0  0  0  0  0  0  0  0  0  0  0  0
   15.0559    3.3308   -1.3543 O   0  0  0  0  0  0  0  0  0  0  0  0
    8.2512    3.8633    0.8180 H   0  0  0  0  0  0  0  0  0  0  0  0
    8.2771    3.4943    3.4249 H   0  0  0  0  0  0  0  0  0  0  0  0
   11.6858    3.6721    3.4489 H   0  0  0  0  0  0  0  0  0  0  0  0
   11.1878    4.0677   -0.9824 H   0  0  0  0  0  0  0  0  0  0  0  0
   11.2868   12.0939    3.2082 H   0  0  0  0  0  0  0  0  0  0  0  0
    2.1361    6.8527    1.9829 H   0  0  0  0  0  0  0  0  0  0  0  0
    2.2441    6.0893    4.5128 H   0  0  0  0  0  0  0  0  0  0  0  0
    4.8303    4.2545    1.3153 H   0  0  0  0  0  0  0  0  0  0  0  0
    5.0585    4.0258    3.9038 H   0  0  0  0  0  0  0  0  0  0  0  0
    0.5106    4.9675   -0.2203 H   0  0  0  0  0  0  0  0  0  0  0  0
    0.0000    1.8051   -1.3449 H   0  0  0  0  0  0  0  0  0  0  0  0
    1.2853    2.9193    3.4862 H   0  0  0  0  0  0  0  0  0  0  0  0
   14.5813    0.0000    0.4393 H   0  0  0  0  0  0  0  0  0  0  0  0
   12.2734    0.5392   -0.6918 H   0  0  0  0  0  0  0  0  0  0  0  0
   12.5264    0.7179    1.9210 H   0  0  0  0  0  0  0  0  0  0  0  0
   14.8873    3.4750    1.5484 H   0  0  0  0  0  0  0  0  0  0  0  0
   14.2916    2.9667   -2.4677 H   0  0  0  0  0  0  0  0  0  0  0  0
  1  2  1  0  0  0  0
  1  3  2  0  0  0  0
  1  8  1  0  0  0  0
  2  5  1  0  0  0  0
  2  7  1  6  0  0  0
  3  4  1  0  0  0  0
  3 17  1  0  0  0  0
  4  5  1  0  0  0  0
  4 21  1  6  0  0  0
  4 22  1  1  0  0  0
  5  6  1  6  0  0  0
  5 23  1  1  0  0  0
  6  7  1  0  0  0  0
  6 19  1  0  0  0  0
  6 24  1  6  0  0  0
  7 11  2  0  0  0  0
  8  9  2  0  0  0  0
  8 10  1  0  0  0  0
 10 25  1  0  0  0  0
 12 13  1  0  0  0  0
 12 16  1  0  0  0  0
 12 26  1  6  0  0  0
 12 27  1  1  0  0  0
 13 17  1  0  0  0  0
 13 28  1  6  0  0  0
 13 29  1  1  0  0  0
 14 15  2  0  0  0  0
 14 16  1  1  0  0  0
 14 30  1  6  0  0  0
 15 31  1  6  0  0  0
 16 32  1  1  0  0  0
 18 19  1  0  0  0  0
 18 33  1  0  0  0  0
 18 34  1  6  0  0  0
 18 35  1  1  0  0  0
 19 20  1  6  0  0  0
 19 36  1  1  0  0  0
 20 37  1  6  0  0  0
M  END
>  <Formula> (216)
C12H17N3O4S

>  <Name> (216)
(5R-(5-ALPHA,6-ALPHA(R*)))-6-(1-HYDROXYETHYL)-3-((2-((IMINOMETHYL)AMINO)ETHYL)THIO)-7-OXO-1-AZABICYCLO(3.2.0)HEPT-2-ENE-2-CARBOXYLIC ACID

>  <CAS-Nr> (216)
64221-86-9

>  <EINECS> (216)
264-734-5

>  <LD50-rat-oral> (216)
>5000

>  <Compound classification> (216)
AB-bLac

>  <Microorganism> (216)
Enterococcus sp.

>  <Microorganism classification> (216)
Bac+

>  <MIC> (216)
0.25

>  <Annotation> (216)
range 0,25 - 1 ppm

>  <Method abbreviation> (216)
SDT

>  <Ref-Nr> (216)
6665

>  <Marker> (216)
0

>  <Method> (216)
Serial dilution test; Inoculum size: ---; Medium: basic medium in air (Enterobacteriaceae, Pseudomonas, Acinetobacter, Staphylococcus, Enterococcus), basic medium + 5% defibrinated horse blood - in 5 % CO2 (Streptococcus, Pneumococcus), basic medium +1 % hemoglobin + 1 % IsoVitaleX - in 5 % CO2 (Haemophilus influenzae, Moraxella catarrhalis); pH: ---; Incubation-temperature: 35-37 degrees Centigrade; Incubation-time: ---; Solubility enhancer: ---

>  <Reference> (216)
Kahlmeter, G., Olsson-Liljequist, B.: Antibiotics - MICs of Isolates that Lack Resistance Mechanisms; Landstinget Kronoberg (http://www.ltkronoberg.se) (1998)

>  <mol_id> (216)
2161

>  <LD50-mouse-oral> (216)
>5000

>  <MolWeight> (216)
299.34

>  <Nickname> (216)
Imipenem

>  <other Names> (216)
Primaxin, (5R,6S)-3-((2-(Formimidoylamino)ethyl)thio)-6-((R)-1-hydroxyethyl)-7-oxo-1-azabicyclo(3.2.0)hept-2-ene-2-carboxylic acid monohydrate, Imipenem, MK 0787, N-Formimidoylthienamycin, MK-787

>  <LD50-mou-iv> (216)
1660

$$$$

csChmFindW11180110282D

 37 38  0  0  0  0  0  0  0  0999 V2000
    9.8127    7.7069    2.5628 C   0  0  0  0  0  0  0  0  0  0  0  0
   11.5933    6.6576    2.3889 N   0  0  0  0  0  0  0  0  0  0  0  0
    8.1971    6.5258    2.5242 C   0  0  0  0  0  0  0  0  0  0  0  0
    8.8153    4.4412    2.2239 C   0  0  0  0  0  0  0  0  0  0  0  0
   11.0372    4.5379    2.2487 C   0  0  0  0  0  0  0  0  0  0  0  0
   12.1357    4.3818    0.2887 C   0  0  0  0  0  0  0  0  0  0  0  0
   12.5519    6.5718    0.4963 C   0  0  0  0  0  0  0  0  0  0  0  0
    9.7642    9.8085    2.8524 C   0  0  0  0  0  0  0  0  0  0  0  0
    8.3067   10.8525    2.9509 O   0  0  0  0  0  0  0  0  0  0  0  0
   11.5079   10.7115    3.0392 O   0  0  0  0  0  0  0  0  0  0  0  0
   13.3784    7.7913   -0.4728 O   0  0  0  0  0  0  0  0  0  0  0  0
    2.4726    5.5926    2.9702 C   0  0  0  0  0  0  0  0  0  0  0  0
    4.6011    5.0302    2.7190 C   0  0  0  0  0  0  0  0  0  0  0  0
    0.6866    3.6216    0.6658 C   0  0  0  0  0  0  0  0  0  0  0  0
    0.4431    1.8777    0.0285 N   0  0  0  0  0  0  0  0  0  0  0  0
    1.0873    4.0697    2.6213 N   0  0  0  0  0  0  0  0  0  0  0  0
    5.9142    7.2204    2.7815 S   0  0  0  0  0  0  0  0  0  0  0  0
   13.2759    0.9543    0.5084 C   0  0  0  0  0  0  0  0  0  0  0  0
   13.8940    3.0592    0.3160 C   0  0  0  0  0  0  0  0  0  0  0  0
   15.0559    3.3308   -1.3543 O   0  0  0  0  0  0  0  0  0  0  0  0
    8.2512    3.8633    0.8180 H   0  0  0  0  0  0  0  0  0  0  0  0
    8.2771    3.4943    3.4249 H   0  0  0  0  0  0  0  0  0  0  0  0
   11.6858    3.6721    3.4489 H   0  0  0  0  0  0  0  0  0  0  0  0
   11.1878    4.0677   -0.9824 H   0  0  0  0  0  0  0  0  0  0  0  0
   11.2868   12.0939    3.2082 H   0  0  0  0  0  0  0  0  0  0  0  0
    2.1361    6.8527    1.9829 H   0  0  0  0  0  0  0  0  0  0  0  0
    2.2441    6.0893    4.5128 H   0  0  0  0  0  0  0  0  0  0  0  0
    4.8303    4.2545    1.3153 H   0  0  0  0  0  0  0  0  0  0  0  0
    5.0585    4.0258    3.9038 H   0  0  0  0  0  0  0  0  0  0  0  0
    0.5106    4.9675   -0.2203 H   0  0  0  0  0  0  0  0  0  0  0  0
    0.0000    1.8051   -1.3449 H   0  0  0  0  0  0  0  0  0  0  0  0
    1.2853    2.9193    3.4862 H   0  0  0  0  0  0  0  0  0  0  0  0
   14.5813    0.0000    0.4393 H   0  0  0  0  0  0  0  0  0  0  0  0
   12.2734    0.5392   -0.6918 H   0  0  0  0  0  0  0  0  0  0  0  0
   12.5264    0.7179    1.9210 H   0  0  0  0  0  0  0  0  0  0  0  0
   14.8873    3.4750    1.5484 H   0  0  0  0  0  0  0  0  0  0  0  0
   14.2916    2.9667   -2.4677 H   0  0  0  0  0  0  0  0  0  0  0  0
  1  2  1  0  0  0  0
  1  3  2  0  0  0  0
  1  8  1  0  0  0  0
  2  5  1  0  0  0  0
  2  7  1  6  0  0  0
  3  4  1  0  0  0  0
  3 17  1  0  0  0  0
  4  5  1  0  0  0  0
  4 21  1  6  0  0  0
  4 22  1  1  0  0  0
  5  6  1  6  0  0  0
  5 23  1  1  0  0  0
  6  7  1  0  0  0  0
  6 19  1  0  0  0  0
  6 24  1  6  0  0  0
  7 11  2  0  0  0  0
  8  9  2  0  0  0  0
  8 10  1  0  0  0  0
 10 25  1  0  0  0  0
 12 13  1  0  0  0  0
 12 16  1  0  0  0  0
 12 26  1  6  0  0  0
 12 27  1  1  0  0  0
 13 17  1  0  0  0  0
 13 28  1  6  0  0  0
 13 29  1  1  0  0  0
 14 15  2  0  0  0  0
 14 16  1  1  0  0  0
 14 30  1  6  0  0  0
 15 31  1  6  0  0  0
 16 32  1  1  0  0  0
 18 19  1  0  0  0  0
 18 33  1  0  0  0  0
 18 34  1  6  0  0  0
 18 35  1  1  0  0  0
 19 20  1  6  0  0  0
 19 36  1  1  0  0  0
 20 37  1  6  0  0  0
M  END
>  <Formula> (217)
C12H17N3O4S

>  <Name> (217)
(5R-(5-ALPHA,6-ALPHA(R*)))-6-(1-HYDROXYETHYL)-3-((2-((IMINOMETHYL)AMINO)ETHYL)THIO)-7-OXO-1-AZABICYCLO(3.2.0)HEPT-2-ENE-2-CARBOXYLIC ACID

>  <CAS-Nr> (217)
64221-86-9

>  <EINECS> (217)
264-734-5

>  <LD50-rat-oral> (217)
>5000

>  <Compound classification> (217)
AB-bLac

>  <Microorganism> (217)
Listeria sp.

>  <Microorganism classification> (217)
Bac+

>  <MIC> (217)
0.032

>  <Annotation> (217)
range 0,032 - 0,125 ppm

>  <Method abbreviation> (217)
SDT

>  <Ref-Nr> (217)
6665

>  <Marker> (217)
0

>  <Method> (217)
Serial dilution test; Inoculum size: ---; Medium: basic medium in air (Enterobacteriaceae, Pseudomonas, Acinetobacter, Staphylococcus, Enterococcus), basic medium + 5% defibrinated horse blood - in 5 % CO2 (Streptococcus, Pneumococcus), basic medium +1 % hemoglobin + 1 % IsoVitaleX - in 5 % CO2 (Haemophilus influenzae, Moraxella catarrhalis); pH: ---; Incubation-temperature: 35-37 degrees Centigrade; Incubation-time: ---; Solubility enhancer: ---

>  <Reference> (217)
Kahlmeter, G., Olsson-Liljequist, B.: Antibiotics - MICs of Isolates that Lack Resistance Mechanisms; Landstinget Kronoberg (http://www.ltkronoberg.se) (1998)

>  <mol_id> (217)
2161

>  <LD50-mouse-oral> (217)
>5000

>  <MolWeight> (217)
299.34

>  <Nickname> (217)
Imipenem

>  <other Names> (217)
Primaxin, (5R,6S)-3-((2-(Formimidoylamino)ethyl)thio)-6-((R)-1-hydroxyethyl)-7-oxo-1-azabicyclo(3.2.0)hept-2-ene-2-carboxylic acid monohydrate, Imipenem, MK 0787, N-Formimidoylthienamycin, MK-787

>  <LD50-mou-iv> (217)
1660

$$$$

csChmFindW11180110282D

 37 38  0  0  0  0  0  0  0  0999 V2000
    9.8127    7.7069    2.5628 C   0  0  0  0  0  0  0  0  0  0  0  0
   11.5933    6.6576    2.3889 N   0  0  0  0  0  0  0  0  0  0  0  0
    8.1971    6.5258    2.5242 C   0  0  0  0  0  0  0  0  0  0  0  0
    8.8153    4.4412    2.2239 C   0  0  0  0  0  0  0  0  0  0  0  0
   11.0372    4.5379    2.2487 C   0  0  0  0  0  0  0  0  0  0  0  0
   12.1357    4.3818    0.2887 C   0  0  0  0  0  0  0  0  0  0  0  0
   12.5519    6.5718    0.4963 C   0  0  0  0  0  0  0  0  0  0  0  0
    9.7642    9.8085    2.8524 C   0  0  0  0  0  0  0  0  0  0  0  0
    8.3067   10.8525    2.9509 O   0  0  0  0  0  0  0  0  0  0  0  0
   11.5079   10.7115    3.0392 O   0  0  0  0  0  0  0  0  0  0  0  0
   13.3784    7.7913   -0.4728 O   0  0  0  0  0  0  0  0  0  0  0  0
    2.4726    5.5926    2.9702 C   0  0  0  0  0  0  0  0  0  0  0  0
    4.6011    5.0302    2.7190 C   0  0  0  0  0  0  0  0  0  0  0  0
    0.6866    3.6216    0.6658 C   0  0  0  0  0  0  0  0  0  0  0  0
    0.4431    1.8777    0.0285 N   0  0  0  0  0  0  0  0  0  0  0  0
    1.0873    4.0697    2.6213 N   0  0  0  0  0  0  0  0  0  0  0  0
    5.9142    7.2204    2.7815 S   0  0  0  0  0  0  0  0  0  0  0  0
   13.2759    0.9543    0.5084 C   0  0  0  0  0  0  0  0  0  0  0  0
   13.8940    3.0592    0.3160 C   0  0  0  0  0  0  0  0  0  0  0  0
   15.0559    3.3308   -1.3543 O   0  0  0  0  0  0  0  0  0  0  0  0
    8.2512    3.8633    0.8180 H   0  0  0  0  0  0  0  0  0  0  0  0
    8.2771    3.4943    3.4249 H   0  0  0  0  0  0  0  0  0  0  0  0
   11.6858    3.6721    3.4489 H   0  0  0  0  0  0  0  0  0  0  0  0
   11.1878    4.0677   -0.9824 H   0  0  0  0  0  0  0  0  0  0  0  0
   11.2868   12.0939    3.2082 H   0  0  0  0  0  0  0  0  0  0  0  0
    2.1361    6.8527    1.9829 H   0  0  0  0  0  0  0  0  0  0  0  0
    2.2441    6.0893    4.5128 H   0  0  0  0  0  0  0  0  0  0  0  0
    4.8303    4.2545    1.3153 H   0  0  0  0  0  0  0  0  0  0  0  0
    5.0585    4.0258    3.9038 H   0  0  0  0  0  0  0  0  0  0  0  0
    0.5106    4.9675   -0.2203 H   0  0  0  0  0  0  0  0  0  0  0  0
    0.0000    1.8051   -1.3449 H   0  0  0  0  0  0  0  0  0  0  0  0
    1.2853    2.9193    3.4862 H   0  0  0  0  0  0  0  0  0  0  0  0
   14.5813    0.0000    0.4393 H   0  0  0  0  0  0  0  0  0  0  0  0
   12.2734    0.5392   -0.6918 H   0  0  0  0  0  0  0  0  0  0  0  0
   12.5264    0.7179    1.9210 H   0  0  0  0  0  0  0  0  0  0  0  0
   14.8873    3.4750    1.5484 H   0  0  0  0  0  0  0  0  0  0  0  0
   14.2916    2.9667   -2.4677 H   0  0  0  0  0  0  0  0  0  0  0  0
  1  2  1  0  0  0  0
  1  3  2  0  0  0  0
  1  8  1  0  0  0  0
  2  5  1  0  0  0  0
  2  7  1  6  0  0  0
  3  4  1  0  0  0  0
  3 17  1  0  0  0  0
  4  5  1  0  0  0  0
  4 21  1  6  0  0  0
  4 22  1  1  0  0  0
  5  6  1  6  0  0  0
  5 23  1  1  0  0  0
  6  7  1  0  0  0  0
  6 19  1  0  0  0  0
  6 24  1  6  0  0  0
  7 11  2  0  0  0  0
  8  9  2  0  0  0  0
  8 10  1  0  0  0  0
 10 25  1  0  0  0  0
 12 13  1  0  0  0  0
 12 16  1  0  0  0  0
 12 26  1  6  0  0  0
 12 27  1  1  0  0  0
 13 17  1  0  0  0  0
 13 28  1  6  0  0  0
 13 29  1  1  0  0  0
 14 15  2  0  0  0  0
 14 16  1  1  0  0  0
 14 30  1  6  0  0  0
 15 31  1  6  0  0  0
 16 32  1  1  0  0  0
 18 19  1  0  0  0  0
 18 33  1  0  0  0  0
 18 34  1  6  0  0  0
 18 35  1  1  0  0  0
 19 20  1  6  0  0  0
 19 36  1  1  0  0  0
 20 37  1  6  0  0  0
M  END
>  <Formula> (218)
C12H17N3O4S

>  <Name> (218)
(5R-(5-ALPHA,6-ALPHA(R*)))-6-(1-HYDROXYETHYL)-3-((2-((IMINOMETHYL)AMINO)ETHYL)THIO)-7-OXO-1-AZABICYCLO(3.2.0)HEPT-2-ENE-2-CARBOXYLIC ACID

>  <CAS-Nr> (218)
64221-86-9

>  <EINECS> (218)
264-734-5

>  <LD50-rat-oral> (218)
>5000

>  <Compound classification> (218)
AB-bLac

>  <Microorganism> (218)
Acinetobacter sp.

>  <Microorganism classification> (218)
Bac-

>  <MIC> (218)
0.032

>  <Annotation> (218)
range 0,032 0,125 ppm

>  <Method abbreviation> (218)
SDT

>  <Ref-Nr> (218)
6665

>  <Marker> (218)
0

>  <Method> (218)
Serial dilution test; Inoculum size: ---; Medium: basic medium in air (Enterobacteriaceae, Pseudomonas, Acinetobacter, Staphylococcus, Enterococcus), basic medium + 5% defibrinated horse blood - in 5 % CO2 (Streptococcus, Pneumococcus), basic medium +1 % hemoglobin + 1 % IsoVitaleX - in 5 % CO2 (Haemophilus influenzae, Moraxella catarrhalis); pH: ---; Incubation-temperature: 35-37 degrees Centigrade; Incubation-time: ---; Solubility enhancer: ---

>  <Reference> (218)
Kahlmeter, G., Olsson-Liljequist, B.: Antibiotics - MICs of Isolates that Lack Resistance Mechanisms; Landstinget Kronoberg (http://www.ltkronoberg.se) (1998)

>  <mol_id> (218)
2161

>  <LD50-mouse-oral> (218)
>5000

>  <MolWeight> (218)
299.34

>  <Nickname> (218)
Imipenem

>  <other Names> (218)
Primaxin, (5R,6S)-3-((2-(Formimidoylamino)ethyl)thio)-6-((R)-1-hydroxyethyl)-7-oxo-1-azabicyclo(3.2.0)hept-2-ene-2-carboxylic acid monohydrate, Imipenem, MK 0787, N-Formimidoylthienamycin, MK-787

>  <LD50-mou-iv> (218)
1660

$$$$
>  <Name> (219)
[2S-[2ALPHA,5ALPHA,6BETA(S*)]]-6-[(AMINOPHENYLACETYL)AMINO]-3,3-DIMETHYL-7-OXO-4-THIA-1-AZABICYCLO[3.2.0]HEPTANE-2-CARBOXYLIC ACID

>  <CAS-Nr> (219)
69-53-4

>  <EINECS> (219)
200-709-7

>  <21 CFR> (219)
556.40

>  <LD50-rat-oral> (219)
10000

>  <Compound classification> (219)
AB-bLac

>  <Microorganism> (219)
Staphylococcus aureus

>  <Microorganism classification> (219)
Bac+

>  <MIC> (219)
0.016

>  <Annotation> (219)
range 0,016 - 0,064 ppm

>  <Method abbreviation> (219)
SDT

>  <Ref-Nr> (219)
6665

>  <Marker> (219)
0

>  <Method> (219)
Serial dilution test; Inoculum size: ---; Medium: basic medium in air (Enterobacteriaceae, Pseudomonas, Acinetobacter, Staphylococcus, Enterococcus), basic medium + 5% defibrinated horse blood - in 5 % CO2 (Streptococcus, Pneumococcus), basic medium +1 % hemoglobin + 1 % IsoVitaleX - in 5 % CO2 (Haemophilus influenzae, Moraxella catarrhalis); pH: ---; Incubation-temperature: 35-37 degrees Centigrade; Incubation-time: ---; Solubility enhancer: ---

>  <Reference> (219)
Kahlmeter, G., Olsson-Liljequist, B.: Antibiotics - MICs of Isolates that Lack Resistance Mechanisms; Landstinget Kronoberg (http://www.ltkronoberg.se) (1998)

>  <mol_id> (219)
2136

>  <LD50-mouse-oral> (219)
15200

>  <LD50-mou-ip> (219)
3250

>  <Nickname> (219)
Ampicillin

>  <other Names> (219)
AB-PC, Adobacillin, Amblosin, Amfipen, Aminobenzylpenicillin, D-(-)-alpha-Aminobenzylpenicillin, D-(-)-alpha-Aminopenicillin, 6-(D(-)-alpha-Aminophenylacetamido)penicillanic acid, Amipenix S, Ampi-bol, Ampicillin, D-Ampicillin, D-(-)-Ampicillin, Ampicillin A, Ampicillin acid, Ampicillin anhydrate, Ampicin, Ampimed, Ampipenin, Amplisom, Amplital, Ampy-Penyl, Austrapen, AY-6108, Binotal, Bonapicillin, Britacil, BRL 1341, Copharcilin, Doktacillin, Grampenil, Guicitrina, NSC-528986, Nuvapen, Olin Kid, Omnipen, P-50, Penbristol, Penbritin, Penbritin paediatric, Penbritin syrup, Penbrock, Penicillin, (aminophenylmethyl)-, Penicline, Pentrex, Pentrexl, Pfizerpen A, Ponecil, Principen, Qidamp, Roscillin, Semicillin, SK-Ampicillin, Synpenin, Tokiocillin, Tolomol, Totacillin, Totalciclina, Totapen, Ultrabron, Viccillin, Viccillin S, WY-5103

>  <LD50-mou-iv> (219)
4600

$$$$

csChmFindW11180110282D

 37 38  0  0  0  0  0  0  0  0999 V2000
    9.8127    7.7069    2.5628 C   0  0  0  0  0  0  0  0  0  0  0  0
   11.5933    6.6576    2.3889 N   0  0  0  0  0  0  0  0  0  0  0  0
    8.1971    6.5258    2.5242 C   0  0  0  0  0  0  0  0  0  0  0  0
    8.8153    4.4412    2.2239 C   0  0  0  0  0  0  0  0  0  0  0  0
   11.0372    4.5379    2.2487 C   0  0  0  0  0  0  0  0  0  0  0  0
   12.1357    4.3818    0.2887 C   0  0  0  0  0  0  0  0  0  0  0  0
   12.5519    6.5718    0.4963 C   0  0  0  0  0  0  0  0  0  0  0  0
    9.7642    9.8085    2.8524 C   0  0  0  0  0  0  0  0  0  0  0  0
    8.3067   10.8525    2.9509 O   0  0  0  0  0  0  0  0  0  0  0  0
   11.5079   10.7115    3.0392 O   0  0  0  0  0  0  0  0  0  0  0  0
   13.3784    7.7913   -0.4728 O   0  0  0  0  0  0  0  0  0  0  0  0
    2.4726    5.5926    2.9702 C   0  0  0  0  0  0  0  0  0  0  0  0
    4.6011    5.0302    2.7190 C   0  0  0  0  0  0  0  0  0  0  0  0
    0.6866    3.6216    0.6658 C   0  0  0  0  0  0  0  0  0  0  0  0
    0.4431    1.8777    0.0285 N   0  0  0  0  0  0  0  0  0  0  0  0
    1.0873    4.0697    2.6213 N   0  0  0  0  0  0  0  0  0  0  0  0
    5.9142    7.2204    2.7815 S   0  0  0  0  0  0  0  0  0  0  0  0
   13.2759    0.9543    0.5084 C   0  0  0  0  0  0  0  0  0  0  0  0
   13.8940    3.0592    0.3160 C   0  0  0  0  0  0  0  0  0  0  0  0
   15.0559    3.3308   -1.3543 O   0  0  0  0  0  0  0  0  0  0  0  0
    8.2512    3.8633    0.8180 H   0  0  0  0  0  0  0  0  0  0  0  0
    8.2771    3.4943    3.4249 H   0  0  0  0  0  0  0  0  0  0  0  0
   11.6858    3.6721    3.4489 H   0  0  0  0  0  0  0  0  0  0  0  0
   11.1878    4.0677   -0.9824 H   0  0  0  0  0  0  0  0  0  0  0  0
   11.2868   12.0939    3.2082 H   0  0  0  0  0  0  0  0  0  0  0  0
    2.1361    6.8527    1.9829 H   0  0  0  0  0  0  0  0  0  0  0  0
    2.2441    6.0893    4.5128 H   0  0  0  0  0  0  0  0  0  0  0  0
    4.8303    4.2545    1.3153 H   0  0  0  0  0  0  0  0  0  0  0  0
    5.0585    4.0258    3.9038 H   0  0  0  0  0  0  0  0  0  0  0  0
    0.5106    4.9675   -0.2203 H   0  0  0  0  0  0  0  0  0  0  0  0
    0.0000    1.8051   -1.3449 H   0  0  0  0  0  0  0  0  0  0  0  0
    1.2853    2.9193    3.4862 H   0  0  0  0  0  0  0  0  0  0  0  0
   14.5813    0.0000    0.4393 H   0  0  0  0  0  0  0  0  0  0  0  0
   12.2734    0.5392   -0.6918 H   0  0  0  0  0  0  0  0  0  0  0  0
   12.5264    0.7179    1.9210 H   0  0  0  0  0  0  0  0  0  0  0  0
   14.8873    3.4750    1.5484 H   0  0  0  0  0  0  0  0  0  0  0  0
   14.2916    2.9667   -2.4677 H   0  0  0  0  0  0  0  0  0  0  0  0
  1  2  1  0  0  0  0
  1  3  2  0  0  0  0
  1  8  1  0  0  0  0
  2  5  1  0  0  0  0
  2  7  1  6  0  0  0
  3  4  1  0  0  0  0
  3 17  1  0  0  0  0
  4  5  1  0  0  0  0
  4 21  1  6  0  0  0
  4 22  1  1  0  0  0
  5  6  1  6  0  0  0
  5 23  1  1  0  0  0
  6  7  1  0  0  0  0
  6 19  1  0  0  0  0
  6 24  1  6  0  0  0
  7 11  2  0  0  0  0
  8  9  2  0  0  0  0
  8 10  1  0  0  0  0
 10 25  1  0  0  0  0
 12 13  1  0  0  0  0
 12 16  1  0  0  0  0
 12 26  1  6  0  0  0
 12 27  1  1  0  0  0
 13 17  1  0  0  0  0
 13 28  1  6  0  0  0
 13 29  1  1  0  0  0
 14 15  2  0  0  0  0
 14 16  1  1  0  0  0
 14 30  1  6  0  0  0
 15 31  1  6  0  0  0
 16 32  1  1  0  0  0
 18 19  1  0  0  0  0
 18 33  1  0  0  0  0
 18 34  1  6  0  0  0
 18 35  1  1  0  0  0
 19 20  1  6  0  0  0
 19 36  1  1  0  0  0
 20 37  1  6  0  0  0
M  END
>  <Formula> (220)
C12H17N3O4S

>  <Name> (220)
(5R-(5-ALPHA,6-ALPHA(R*)))-6-(1-HYDROXYETHYL)-3-((2-((IMINOMETHYL)AMINO)ETHYL)THIO)-7-OXO-1-AZABICYCLO(3.2.0)HEPT-2-ENE-2-CARBOXYLIC ACID

>  <CAS-Nr> (220)
64221-86-9

>  <EINECS> (220)
264-734-5

>  <LD50-rat-oral> (220)
>5000

>  <Compound classification> (220)
AB-bLac

>  <Microorganism> (220)
Staphylococcus aureus

>  <Microorganism classification> (220)
Bac+

>  <MIC> (220)
0.008

>  <Annotation> (220)
range 0,008 - 0,032 ppm

>  <Method abbreviation> (220)
SDT

>  <Ref-Nr> (220)
6665

>  <Marker> (220)
0

>  <Method> (220)
Serial dilution test; Inoculum size: ---; Medium: basic medium in air (Enterobacteriaceae, Pseudomonas, Acinetobacter, Staphylococcus, Enterococcus), basic medium + 5% defibrinated horse blood - in 5 % CO2 (Streptococcus, Pneumococcus), basic medium +1 % hemoglobin + 1 % IsoVitaleX - in 5 % CO2 (Haemophilus influenzae, Moraxella catarrhalis); pH: ---; Incubation-temperature: 35-37 degrees Centigrade; Incubation-time: ---; Solubility enhancer: ---

>  <Reference> (220)
Kahlmeter, G., Olsson-Liljequist, B.: Antibiotics - MICs of Isolates that Lack Resistance Mechanisms; Landstinget Kronoberg (http://www.ltkronoberg.se) (1998)

>  <mol_id> (220)
2161

>  <LD50-mouse-oral> (220)
>5000

>  <MolWeight> (220)
299.34

>  <Nickname> (220)
Imipenem

>  <other Names> (220)
Primaxin, (5R,6S)-3-((2-(Formimidoylamino)ethyl)thio)-6-((R)-1-hydroxyethyl)-7-oxo-1-azabicyclo(3.2.0)hept-2-ene-2-carboxylic acid monohydrate, Imipenem, MK 0787, N-Formimidoylthienamycin, MK-787

>  <LD50-mou-iv> (220)
1660

$$$$

csChmFindW11180110282D

 37 38  0  0  0  0  0  0  0  0999 V2000
    9.8127    7.7069    2.5628 C   0  0  0  0  0  0  0  0  0  0  0  0
   11.5933    6.6576    2.3889 N   0  0  0  0  0  0  0  0  0  0  0  0
    8.1971    6.5258    2.5242 C   0  0  0  0  0  0  0  0  0  0  0  0
    8.8153    4.4412    2.2239 C   0  0  0  0  0  0  0  0  0  0  0  0
   11.0372    4.5379    2.2487 C   0  0  0  0  0  0  0  0  0  0  0  0
   12.1357    4.3818    0.2887 C   0  0  0  0  0  0  0  0  0  0  0  0
   12.5519    6.5718    0.4963 C   0  0  0  0  0  0  0  0  0  0  0  0
    9.7642    9.8085    2.8524 C   0  0  0  0  0  0  0  0  0  0  0  0
    8.3067   10.8525    2.9509 O   0  0  0  0  0  0  0  0  0  0  0  0
   11.5079   10.7115    3.0392 O   0  0  0  0  0  0  0  0  0  0  0  0
   13.3784    7.7913   -0.4728 O   0  0  0  0  0  0  0  0  0  0  0  0
    2.4726    5.5926    2.9702 C   0  0  0  0  0  0  0  0  0  0  0  0
    4.6011    5.0302    2.7190 C   0  0  0  0  0  0  0  0  0  0  0  0
    0.6866    3.6216    0.6658 C   0  0  0  0  0  0  0  0  0  0  0  0
    0.4431    1.8777    0.0285 N   0  0  0  0  0  0  0  0  0  0  0  0
    1.0873    4.0697    2.6213 N   0  0  0  0  0  0  0  0  0  0  0  0
    5.9142    7.2204    2.7815 S   0  0  0  0  0  0  0  0  0  0  0  0
   13.2759    0.9543    0.5084 C   0  0  0  0  0  0  0  0  0  0  0  0
   13.8940    3.0592    0.3160 C   0  0  0  0  0  0  0  0  0  0  0  0
   15.0559    3.3308   -1.3543 O   0  0  0  0  0  0  0  0  0  0  0  0
    8.2512    3.8633    0.8180 H   0  0  0  0  0  0  0  0  0  0  0  0
    8.2771    3.4943    3.4249 H   0  0  0  0  0  0  0  0  0  0  0  0
   11.6858    3.6721    3.4489 H   0  0  0  0  0  0  0  0  0  0  0  0
   11.1878    4.0677   -0.9824 H   0  0  0  0  0  0  0  0  0  0  0  0
   11.2868   12.0939    3.2082 H   0  0  0  0  0  0  0  0  0  0  0  0
    2.1361    6.8527    1.9829 H   0  0  0  0  0  0  0  0  0  0  0  0
    2.2441    6.0893    4.5128 H   0  0  0  0  0  0  0  0  0  0  0  0
    4.8303    4.2545    1.3153 H   0  0  0  0  0  0  0  0  0  0  0  0
    5.0585    4.0258    3.9038 H   0  0  0  0  0  0  0  0  0  0  0  0
    0.5106    4.9675   -0.2203 H   0  0  0  0  0  0  0  0  0  0  0  0
    0.0000    1.8051   -1.3449 H   0  0  0  0  0  0  0  0  0  0  0  0
    1.2853    2.9193    3.4862 H   0  0  0  0  0  0  0  0  0  0  0  0
   14.5813    0.0000    0.4393 H   0  0  0  0  0  0  0  0  0  0  0  0
   12.2734    0.5392   -0.6918 H   0  0  0  0  0  0  0  0  0  0  0  0
   12.5264    0.7179    1.9210 H   0  0  0  0  0  0  0  0  0  0  0  0
   14.8873    3.4750    1.5484 H   0  0  0  0  0  0  0  0  0  0  0  0
   14.2916    2.9667   -2.4677 H   0  0  0  0  0  0  0  0  0  0  0  0
  1  2  1  0  0  0  0
  1  3  2  0  0  0  0
  1  8  1  0  0  0  0
  2  5  1  0  0  0  0
  2  7  1  6  0  0  0
  3  4  1  0  0  0  0
  3 17  1  0  0  0  0
  4  5  1  0  0  0  0
  4 21  1  6  0  0  0
  4 22  1  1  0  0  0
  5  6  1  6  0  0  0
  5 23  1  1  0  0  0
  6  7  1  0  0  0  0
  6 19  1  0  0  0  0
  6 24  1  6  0  0  0
  7 11  2  0  0  0  0
  8  9  2  0  0  0  0
  8 10  1  0  0  0  0
 10 25  1  0  0  0  0
 12 13  1  0  0  0  0
 12 16  1  0  0  0  0
 12 26  1  6  0  0  0
 12 27  1  1  0  0  0
 13 17  1  0  0  0  0
 13 28  1  6  0  0  0
 13 29  1  1  0  0  0
 14 15  2  0  0  0  0
 14 16  1  1  0  0  0
 14 30  1  6  0  0  0
 15 31  1  6  0  0  0
 16 32  1  1  0  0  0
 18 19  1  0  0  0  0
 18 33  1  0  0  0  0
 18 34  1  6  0  0  0
 18 35  1  1  0  0  0
 19 20  1  6  0  0  0
 19 36  1  1  0  0  0
 20 37  1  6  0  0  0
M  END
>  <Formula> (221)
C12H17N3O4S

>  <Name> (221)
(5R-(5-ALPHA,6-ALPHA(R*)))-6-(1-HYDROXYETHYL)-3-((2-((IMINOMETHYL)AMINO)ETHYL)THIO)-7-OXO-1-AZABICYCLO(3.2.0)HEPT-2-ENE-2-CARBOXYLIC ACID

>  <CAS-Nr> (221)
64221-86-9

>  <EINECS> (221)
264-734-5

>  <LD50-rat-oral> (221)
>5000

>  <Compound classification> (221)
AB-bLac

>  <Microorganism> (221)
Staphylococcus saprophyticus subsp. saprophyticus

>  <Publication strain name> (221)
Staphylococcus saphrophyticus

>  <Microorganism classification> (221)
Bac+

>  <MIC> (221)
0.016

>  <Annotation> (221)
range 0,016 - 0,032 ppm

>  <Method abbreviation> (221)
SDT

>  <Ref-Nr> (221)
6665

>  <Marker> (221)
0

>  <Method> (221)
Serial dilution test; Inoculum size: ---; Medium: basic medium in air (Enterobacteriaceae, Pseudomonas, Acinetobacter, Staphylococcus, Enterococcus), basic medium + 5% defibrinated horse blood - in 5 % CO2 (Streptococcus, Pneumococcus), basic medium +1 % hemoglobin + 1 % IsoVitaleX - in 5 % CO2 (Haemophilus influenzae, Moraxella catarrhalis); pH: ---; Incubation-temperature: 35-37 degrees Centigrade; Incubation-time: ---; Solubility enhancer: ---

>  <Reference> (221)
Kahlmeter, G., Olsson-Liljequist, B.: Antibiotics - MICs of Isolates that Lack Resistance Mechanisms; Landstinget Kronoberg (http://www.ltkronoberg.se) (1998)

>  <mol_id> (221)
2161

>  <LD50-mouse-oral> (221)
>5000

>  <MolWeight> (221)
299.34

>  <Nickname> (221)
Imipenem

>  <other Names> (221)
Primaxin, (5R,6S)-3-((2-(Formimidoylamino)ethyl)thio)-6-((R)-1-hydroxyethyl)-7-oxo-1-azabicyclo(3.2.0)hept-2-ene-2-carboxylic acid monohydrate, Imipenem, MK 0787, N-Formimidoylthienamycin, MK-787

>  <LD50-mou-iv> (221)
1660

$$$$

csChmFindW11180110282D

 37 38  0  0  0  0  0  0  0  0999 V2000
    9.8127    7.7069    2.5628 C   0  0  0  0  0  0  0  0  0  0  0  0
   11.5933    6.6576    2.3889 N   0  0  0  0  0  0  0  0  0  0  0  0
    8.1971    6.5258    2.5242 C   0  0  0  0  0  0  0  0  0  0  0  0
    8.8153    4.4412    2.2239 C   0  0  0  0  0  0  0  0  0  0  0  0
   11.0372    4.5379    2.2487 C   0  0  0  0  0  0  0  0  0  0  0  0
   12.1357    4.3818    0.2887 C   0  0  0  0  0  0  0  0  0  0  0  0
   12.5519    6.5718    0.4963 C   0  0  0  0  0  0  0  0  0  0  0  0
    9.7642    9.8085    2.8524 C   0  0  0  0  0  0  0  0  0  0  0  0
    8.3067   10.8525    2.9509 O   0  0  0  0  0  0  0  0  0  0  0  0
   11.5079   10.7115    3.0392 O   0  0  0  0  0  0  0  0  0  0  0  0
   13.3784    7.7913   -0.4728 O   0  0  0  0  0  0  0  0  0  0  0  0
    2.4726    5.5926    2.9702 C   0  0  0  0  0  0  0  0  0  0  0  0
    4.6011    5.0302    2.7190 C   0  0  0  0  0  0  0  0  0  0  0  0
    0.6866    3.6216    0.6658 C   0  0  0  0  0  0  0  0  0  0  0  0
    0.4431    1.8777    0.0285 N   0  0  0  0  0  0  0  0  0  0  0  0
    1.0873    4.0697    2.6213 N   0  0  0  0  0  0  0  0  0  0  0  0
    5.9142    7.2204    2.7815 S   0  0  0  0  0  0  0  0  0  0  0  0
   13.2759    0.9543    0.5084 C   0  0  0  0  0  0  0  0  0  0  0  0
   13.8940    3.0592    0.3160 C   0  0  0  0  0  0  0  0  0  0  0  0
   15.0559    3.3308   -1.3543 O   0  0  0  0  0  0  0  0  0  0  0  0
    8.2512    3.8633    0.8180 H   0  0  0  0  0  0  0  0  0  0  0  0
    8.2771    3.4943    3.4249 H   0  0  0  0  0  0  0  0  0  0  0  0
   11.6858    3.6721    3.4489 H   0  0  0  0  0  0  0  0  0  0  0  0
   11.1878    4.0677   -0.9824 H   0  0  0  0  0  0  0  0  0  0  0  0
   11.2868   12.0939    3.2082 H   0  0  0  0  0  0  0  0  0  0  0  0
    2.1361    6.8527    1.9829 H   0  0  0  0  0  0  0  0  0  0  0  0
    2.2441    6.0893    4.5128 H   0  0  0  0  0  0  0  0  0  0  0  0
    4.8303    4.2545    1.3153 H   0  0  0  0  0  0  0  0  0  0  0  0
    5.0585    4.0258    3.9038 H   0  0  0  0  0  0  0  0  0  0  0  0
    0.5106    4.9675   -0.2203 H   0  0  0  0  0  0  0  0  0  0  0  0
    0.0000    1.8051   -1.3449 H   0  0  0  0  0  0  0  0  0  0  0  0
    1.2853    2.9193    3.4862 H   0  0  0  0  0  0  0  0  0  0  0  0
   14.5813    0.0000    0.4393 H   0  0  0  0  0  0  0  0  0  0  0  0
   12.2734    0.5392   -0.6918 H   0  0  0  0  0  0  0  0  0  0  0  0
   12.5264    0.7179    1.9210 H   0  0  0  0  0  0  0  0  0  0  0  0
   14.8873    3.4750    1.5484 H   0  0  0  0  0  0  0  0  0  0  0  0
   14.2916    2.9667   -2.4677 H   0  0  0  0  0  0  0  0  0  0  0  0
  1  2  1  0  0  0  0
  1  3  2  0  0  0  0
  1  8  1  0  0  0  0
  2  5  1  0  0  0  0
  2  7  1  6  0  0  0
  3  4  1  0  0  0  0
  3 17  1  0  0  0  0
  4  5  1  0  0  0  0
  4 21  1  6  0  0  0
  4 22  1  1  0  0  0
  5  6  1  6  0  0  0
  5 23  1  1  0  0  0
  6  7  1  0  0  0  0
  6 19  1  0  0  0  0
  6 24  1  6  0  0  0
  7 11  2  0  0  0  0
  8  9  2  0  0  0  0
  8 10  1  0  0  0  0
 10 25  1  0  0  0  0
 12 13  1  0  0  0  0
 12 16  1  0  0  0  0
 12 26  1  6  0  0  0
 12 27  1  1  0  0  0
 13 17  1  0  0  0  0
 13 28  1  6  0  0  0
 13 29  1  1  0  0  0
 14 15  2  0  0  0  0
 14 16  1  1  0  0  0
 14 30  1  6  0  0  0
 15 31  1  6  0  0  0
 16 32  1  1  0  0  0
 18 19  1  0  0  0  0
 18 33  1  0  0  0  0
 18 34  1  6  0  0  0
 18 35  1  1  0  0  0
 19 20  1  6  0  0  0
 19 36  1  1  0  0  0
 20 37  1  6  0  0  0
M  END
>  <Formula> (222)
C12H17N3O4S

>  <Name> (222)
(5R-(5-ALPHA,6-ALPHA(R*)))-6-(1-HYDROXYETHYL)-3-((2-((IMINOMETHYL)AMINO)ETHYL)THIO)-7-OXO-1-AZABICYCLO(3.2.0)HEPT-2-ENE-2-CARBOXYLIC ACID

>  <CAS-Nr> (222)
64221-86-9

>  <EINECS> (222)
264-734-5

>  <LD50-rat-oral> (222)
>5000

>  <Compound classification> (222)
AB-bLac

>  <Microorganism> (222)
Staphylococcus sp.

>  <Microorganism type> (222)
coagulase negative

>  <Microorganism classification> (222)
Bac+

>  <MIC> (222)
0.008

>  <Annotation> (222)
range 0,008 - 0,016 ppm

>  <Method abbreviation> (222)
SDT

>  <Ref-Nr> (222)
6665

>  <Marker> (222)
0

>  <Method> (222)
Serial dilution test; Inoculum size: ---; Medium: basic medium in air (Enterobacteriaceae, Pseudomonas, Acinetobacter, Staphylococcus, Enterococcus), basic medium + 5% defibrinated horse blood - in 5 % CO2 (Streptococcus, Pneumococcus), basic medium +1 % hemoglobin + 1 % IsoVitaleX - in 5 % CO2 (Haemophilus influenzae, Moraxella catarrhalis); pH: ---; Incubation-temperature: 35-37 degrees Centigrade; Incubation-time: ---; Solubility enhancer: ---

>  <Reference> (222)
Kahlmeter, G., Olsson-Liljequist, B.: Antibiotics - MICs of Isolates that Lack Resistance Mechanisms; Landstinget Kronoberg (http://www.ltkronoberg.se) (1998)

>  <mol_id> (222)
2161

>  <LD50-mouse-oral> (222)
>5000

>  <MolWeight> (222)
299.34

>  <Nickname> (222)
Imipenem

>  <other Names> (222)
Primaxin, (5R,6S)-3-((2-(Formimidoylamino)ethyl)thio)-6-((R)-1-hydroxyethyl)-7-oxo-1-azabicyclo(3.2.0)hept-2-ene-2-carboxylic acid monohydrate, Imipenem, MK 0787, N-Formimidoylthienamycin, MK-787

>  <LD50-mou-iv> (222)
1660

$$$$

csChmFindW11180110282D

 37 38  0  0  0  0  0  0  0  0999 V2000
    9.8127    7.7069    2.5628 C   0  0  0  0  0  0  0  0  0  0  0  0
   11.5933    6.6576    2.3889 N   0  0  0  0  0  0  0  0  0  0  0  0
    8.1971    6.5258    2.5242 C   0  0  0  0  0  0  0  0  0  0  0  0
    8.8153    4.4412    2.2239 C   0  0  0  0  0  0  0  0  0  0  0  0
   11.0372    4.5379    2.2487 C   0  0  0  0  0  0  0  0  0  0  0  0
   12.1357    4.3818    0.2887 C   0  0  0  0  0  0  0  0  0  0  0  0
   12.5519    6.5718    0.4963 C   0  0  0  0  0  0  0  0  0  0  0  0
    9.7642    9.8085    2.8524 C   0  0  0  0  0  0  0  0  0  0  0  0
    8.3067   10.8525    2.9509 O   0  0  0  0  0  0  0  0  0  0  0  0
   11.5079   10.7115    3.0392 O   0  0  0  0  0  0  0  0  0  0  0  0
   13.3784    7.7913   -0.4728 O   0  0  0  0  0  0  0  0  0  0  0  0
    2.4726    5.5926    2.9702 C   0  0  0  0  0  0  0  0  0  0  0  0
    4.6011    5.0302    2.7190 C   0  0  0  0  0  0  0  0  0  0  0  0
    0.6866    3.6216    0.6658 C   0  0  0  0  0  0  0  0  0  0  0  0
    0.4431    1.8777    0.0285 N   0  0  0  0  0  0  0  0  0  0  0  0
    1.0873    4.0697    2.6213 N   0  0  0  0  0  0  0  0  0  0  0  0
    5.9142    7.2204    2.7815 S   0  0  0  0  0  0  0  0  0  0  0  0
   13.2759    0.9543    0.5084 C   0  0  0  0  0  0  0  0  0  0  0  0
   13.8940    3.0592    0.3160 C   0  0  0  0  0  0  0  0  0  0  0  0
   15.0559    3.3308   -1.3543 O   0  0  0  0  0  0  0  0  0  0  0  0
    8.2512    3.8633    0.8180 H   0  0  0  0  0  0  0  0  0  0  0  0
    8.2771    3.4943    3.4249 H   0  0  0  0  0  0  0  0  0  0  0  0
   11.6858    3.6721    3.4489 H   0  0  0  0  0  0  0  0  0  0  0  0
   11.1878    4.0677   -0.9824 H   0  0  0  0  0  0  0  0  0  0  0  0
   11.2868   12.0939    3.2082 H   0  0  0  0  0  0  0  0  0  0  0  0
    2.1361    6.8527    1.9829 H   0  0  0  0  0  0  0  0  0  0  0  0
    2.2441    6.0893    4.5128 H   0  0  0  0  0  0  0  0  0  0  0  0
    4.8303    4.2545    1.3153 H   0  0  0  0  0  0  0  0  0  0  0  0
    5.0585    4.0258    3.9038 H   0  0  0  0  0  0  0  0  0  0  0  0
    0.5106    4.9675   -0.2203 H   0  0  0  0  0  0  0  0  0  0  0  0
    0.0000    1.8051   -1.3449 H   0  0  0  0  0  0  0  0  0  0  0  0
    1.2853    2.9193    3.4862 H   0  0  0  0  0  0  0  0  0  0  0  0
   14.5813    0.0000    0.4393 H   0  0  0  0  0  0  0  0  0  0  0  0
   12.2734    0.5392   -0.6918 H   0  0  0  0  0  0  0  0  0  0  0  0
   12.5264    0.7179    1.9210 H   0  0  0  0  0  0  0  0  0  0  0  0
   14.8873    3.4750    1.5484 H   0  0  0  0  0  0  0  0  0  0  0  0
   14.2916    2.9667   -2.4677 H   0  0  0  0  0  0  0  0  0  0  0  0
  1  2  1  0  0  0  0
  1  3  2  0  0  0  0
  1  8  1  0  0  0  0
  2  5  1  0  0  0  0
  2  7  1  6  0  0  0
  3  4  1  0  0  0  0
  3 17  1  0  0  0  0
  4  5  1  0  0  0  0
  4 21  1  6  0  0  0
  4 22  1  1  0  0  0
  5  6  1  6  0  0  0
  5 23  1  1  0  0  0
  6  7  1  0  0  0  0
  6 19  1  0  0  0  0
  6 24  1  6  0  0  0
  7 11  2  0  0  0  0
  8  9  2  0  0  0  0
  8 10  1  0  0  0  0
 10 25  1  0  0  0  0
 12 13  1  0  0  0  0
 12 16  1  0  0  0  0
 12 26  1  6  0  0  0
 12 27  1  1  0  0  0
 13 17  1  0  0  0  0
 13 28  1  6  0  0  0
 13 29  1  1  0  0  0
 14 15  2  0  0  0  0
 14 16  1  1  0  0  0
 14 30  1  6  0  0  0
 15 31  1  6  0  0  0
 16 32  1  1  0  0  0
 18 19  1  0  0  0  0
 18 33  1  0  0  0  0
 18 34  1  6  0  0  0
 18 35  1  1  0  0  0
 19 20  1  6  0  0  0
 19 36  1  1  0  0  0
 20 37  1  6  0  0  0
M  END
>  <Formula> (223)
C12H17N3O4S

>  <Name> (223)
(5R-(5-ALPHA,6-ALPHA(R*)))-6-(1-HYDROXYETHYL)-3-((2-((IMINOMETHYL)AMINO)ETHYL)THIO)-7-OXO-1-AZABICYCLO(3.2.0)HEPT-2-ENE-2-CARBOXYLIC ACID

>  <CAS-Nr> (223)
64221-86-9

>  <EINECS> (223)
264-734-5

>  <LD50-rat-oral> (223)
>5000

>  <Compound classification> (223)
AB-bLac

>  <Microorganism> (223)
Streptococcus pneumoniae

>  <Publication strain name> (223)
Pneumococcus sp.

>  <Microorganism classification> (223)
Bac+

>  <MIC> (223)
0.004

>  <Annotation> (223)
range 0,004 - 0,016 ppm

>  <Method abbreviation> (223)
SDT

>  <Ref-Nr> (223)
6665

>  <Marker> (223)
0

>  <Method> (223)
Serial dilution test; Inoculum size: ---; Medium: basic medium in air (Enterobacteriaceae, Pseudomonas, Acinetobacter, Staphylococcus, Enterococcus), basic medium + 5% defibrinated horse blood - in 5 % CO2 (Streptococcus, Pneumococcus), basic medium +1 % hemoglobin + 1 % IsoVitaleX - in 5 % CO2 (Haemophilus influenzae, Moraxella catarrhalis); pH: ---; Incubation-temperature: 35-37 degrees Centigrade; Incubation-time: ---; Solubility enhancer: ---

>  <Reference> (223)
Kahlmeter, G., Olsson-Liljequist, B.: Antibiotics - MICs of Isolates that Lack Resistance Mechanisms; Landstinget Kronoberg (http://www.ltkronoberg.se) (1998)

>  <mol_id> (223)
2161

>  <LD50-mouse-oral> (223)
>5000

>  <MolWeight> (223)
299.34

>  <Nickname> (223)
Imipenem

>  <other Names> (223)
Primaxin, (5R,6S)-3-((2-(Formimidoylamino)ethyl)thio)-6-((R)-1-hydroxyethyl)-7-oxo-1-azabicyclo(3.2.0)hept-2-ene-2-carboxylic acid monohydrate, Imipenem, MK 0787, N-Formimidoylthienamycin, MK-787

>  <LD50-mou-iv> (223)
1660

$$$$

csChmFindW11180110282D

 37 38  0  0  0  0  0  0  0  0999 V2000
    9.8127    7.7069    2.5628 C   0  0  0  0  0  0  0  0  0  0  0  0
   11.5933    6.6576    2.3889 N   0  0  0  0  0  0  0  0  0  0  0  0
    8.1971    6.5258    2.5242 C   0  0  0  0  0  0  0  0  0  0  0  0
    8.8153    4.4412    2.2239 C   0  0  0  0  0  0  0  0  0  0  0  0
   11.0372    4.5379    2.2487 C   0  0  0  0  0  0  0  0  0  0  0  0
   12.1357    4.3818    0.2887 C   0  0  0  0  0  0  0  0  0  0  0  0
   12.5519    6.5718    0.4963 C   0  0  0  0  0  0  0  0  0  0  0  0
    9.7642    9.8085    2.8524 C   0  0  0  0  0  0  0  0  0  0  0  0
    8.3067   10.8525    2.9509 O   0  0  0  0  0  0  0  0  0  0  0  0
   11.5079   10.7115    3.0392 O   0  0  0  0  0  0  0  0  0  0  0  0
   13.3784    7.7913   -0.4728 O   0  0  0  0  0  0  0  0  0  0  0  0
    2.4726    5.5926    2.9702 C   0  0  0  0  0  0  0  0  0  0  0  0
    4.6011    5.0302    2.7190 C   0  0  0  0  0  0  0  0  0  0  0  0
    0.6866    3.6216    0.6658 C   0  0  0  0  0  0  0  0  0  0  0  0
    0.4431    1.8777    0.0285 N   0  0  0  0  0  0  0  0  0  0  0  0
    1.0873    4.0697    2.6213 N   0  0  0  0  0  0  0  0  0  0  0  0
    5.9142    7.2204    2.7815 S   0  0  0  0  0  0  0  0  0  0  0  0
   13.2759    0.9543    0.5084 C   0  0  0  0  0  0  0  0  0  0  0  0
   13.8940    3.0592    0.3160 C   0  0  0  0  0  0  0  0  0  0  0  0
   15.0559    3.3308   -1.3543 O   0  0  0  0  0  0  0  0  0  0  0  0
    8.2512    3.8633    0.8180 H   0  0  0  0  0  0  0  0  0  0  0  0
    8.2771    3.4943    3.4249 H   0  0  0  0  0  0  0  0  0  0  0  0
   11.6858    3.6721    3.4489 H   0  0  0  0  0  0  0  0  0  0  0  0
   11.1878    4.0677   -0.9824 H   0  0  0  0  0  0  0  0  0  0  0  0
   11.2868   12.0939    3.2082 H   0  0  0  0  0  0  0  0  0  0  0  0
    2.1361    6.8527    1.9829 H   0  0  0  0  0  0  0  0  0  0  0  0
    2.2441    6.0893    4.5128 H   0  0  0  0  0  0  0  0  0  0  0  0
    4.8303    4.2545    1.3153 H   0  0  0  0  0  0  0  0  0  0  0  0
    5.0585    4.0258    3.9038 H   0  0  0  0  0  0  0  0  0  0  0  0
    0.5106    4.9675   -0.2203 H   0  0  0  0  0  0  0  0  0  0  0  0
    0.0000    1.8051   -1.3449 H   0  0  0  0  0  0  0  0  0  0  0  0
    1.2853    2.9193    3.4862 H   0  0  0  0  0  0  0  0  0  0  0  0
   14.5813    0.0000    0.4393 H   0  0  0  0  0  0  0  0  0  0  0  0
   12.2734    0.5392   -0.6918 H   0  0  0  0  0  0  0  0  0  0  0  0
   12.5264    0.7179    1.9210 H   0  0  0  0  0  0  0  0  0  0  0  0
   14.8873    3.4750    1.5484 H   0  0  0  0  0  0  0  0  0  0  0  0
   14.2916    2.9667   -2.4677 H   0  0  0  0  0  0  0  0  0  0  0  0
  1  2  1  0  0  0  0
  1  3  2  0  0  0  0
  1  8  1  0  0  0  0
  2  5  1  0  0  0  0
  2  7  1  6  0  0  0
  3  4  1  0  0  0  0
  3 17  1  0  0  0  0
  4  5  1  0  0  0  0
  4 21  1  6  0  0  0
  4 22  1  1  0  0  0
  5  6  1  6  0  0  0
  5 23  1  1  0  0  0
  6  7  1  0  0  0  0
  6 19  1  0  0  0  0
  6 24  1  6  0  0  0
  7 11  2  0  0  0  0
  8  9  2  0  0  0  0
  8 10  1  0  0  0  0
 10 25  1  0  0  0  0
 12 13  1  0  0  0  0
 12 16  1  0  0  0  0
 12 26  1  6  0  0  0
 12 27  1  1  0  0  0
 13 17  1  0  0  0  0
 13 28  1  6  0  0  0
 13 29  1  1  0  0  0
 14 15  2  0  0  0  0
 14 16  1  1  0  0  0
 14 30  1  6  0  0  0
 15 31  1  6  0  0  0
 16 32  1  1  0  0  0
 18 19  1  0  0  0  0
 18 33  1  0  0  0  0
 18 34  1  6  0  0  0
 18 35  1  1  0  0  0
 19 20  1  6  0  0  0
 19 36  1  1  0  0  0
 20 37  1  6  0  0  0
M  END
>  <Formula> (224)
C12H17N3O4S

>  <Name> (224)
(5R-(5-ALPHA,6-ALPHA(R*)))-6-(1-HYDROXYETHYL)-3-((2-((IMINOMETHYL)AMINO)ETHYL)THIO)-7-OXO-1-AZABICYCLO(3.2.0)HEPT-2-ENE-2-CARBOXYLIC ACID

>  <CAS-Nr> (224)
64221-86-9

>  <EINECS> (224)
264-734-5

>  <LD50-rat-oral> (224)
>5000

>  <Compound classification> (224)
AB-bLac

>  <Microorganism> (224)
Streptococcus sp.

>  <Microorganism type> (224)
A

>  <Microorganism classification> (224)
Bac+

>  <MIC> (224)
0.004

>  <Annotation> (224)
range 0,004 - 0,016 ppm

>  <Method abbreviation> (224)
SDT

>  <Ref-Nr> (224)
6665

>  <Marker> (224)
0

>  <Method> (224)
Serial dilution test; Inoculum size: ---; Medium: basic medium in air (Enterobacteriaceae, Pseudomonas, Acinetobacter, Staphylococcus, Enterococcus), basic medium + 5% defibrinated horse blood - in 5 % CO2 (Streptococcus, Pneumococcus), basic medium +1 % hemoglobin + 1 % IsoVitaleX - in 5 % CO2 (Haemophilus influenzae, Moraxella catarrhalis); pH: ---; Incubation-temperature: 35-37 degrees Centigrade; Incubation-time: ---; Solubility enhancer: ---

>  <Reference> (224)
Kahlmeter, G., Olsson-Liljequist, B.: Antibiotics - MICs of Isolates that Lack Resistance Mechanisms; Landstinget Kronoberg (http://www.ltkronoberg.se) (1998)

>  <mol_id> (224)
2161

>  <LD50-mouse-oral> (224)
>5000

>  <MolWeight> (224)
299.34

>  <Nickname> (224)
Imipenem

>  <other Names> (224)
Primaxin, (5R,6S)-3-((2-(Formimidoylamino)ethyl)thio)-6-((R)-1-hydroxyethyl)-7-oxo-1-azabicyclo(3.2.0)hept-2-ene-2-carboxylic acid monohydrate, Imipenem, MK 0787, N-Formimidoylthienamycin, MK-787

>  <LD50-mou-iv> (224)
1660

$$$$

csChmFindW11180110282D

 37 38  0  0  0  0  0  0  0  0999 V2000
    9.8127    7.7069    2.5628 C   0  0  0  0  0  0  0  0  0  0  0  0
   11.5933    6.6576    2.3889 N   0  0  0  0  0  0  0  0  0  0  0  0
    8.1971    6.5258    2.5242 C   0  0  0  0  0  0  0  0  0  0  0  0
    8.8153    4.4412    2.2239 C   0  0  0  0  0  0  0  0  0  0  0  0
   11.0372    4.5379    2.2487 C   0  0  0  0  0  0  0  0  0  0  0  0
   12.1357    4.3818    0.2887 C   0  0  0  0  0  0  0  0  0  0  0  0
   12.5519    6.5718    0.4963 C   0  0  0  0  0  0  0  0  0  0  0  0
    9.7642    9.8085    2.8524 C   0  0  0  0  0  0  0  0  0  0  0  0
    8.3067   10.8525    2.9509 O   0  0  0  0  0  0  0  0  0  0  0  0
   11.5079   10.7115    3.0392 O   0  0  0  0  0  0  0  0  0  0  0  0
   13.3784    7.7913   -0.4728 O   0  0  0  0  0  0  0  0  0  0  0  0
    2.4726    5.5926    2.9702 C   0  0  0  0  0  0  0  0  0  0  0  0
    4.6011    5.0302    2.7190 C   0  0  0  0  0  0  0  0  0  0  0  0
    0.6866    3.6216    0.6658 C   0  0  0  0  0  0  0  0  0  0  0  0
    0.4431    1.8777    0.0285 N   0  0  0  0  0  0  0  0  0  0  0  0
    1.0873    4.0697    2.6213 N   0  0  0  0  0  0  0  0  0  0  0  0
    5.9142    7.2204    2.7815 S   0  0  0  0  0  0  0  0  0  0  0  0
   13.2759    0.9543    0.5084 C   0  0  0  0  0  0  0  0  0  0  0  0
   13.8940    3.0592    0.3160 C   0  0  0  0  0  0  0  0  0  0  0  0
   15.0559    3.3308   -1.3543 O   0  0  0  0  0  0  0  0  0  0  0  0
    8.2512    3.8633    0.8180 H   0  0  0  0  0  0  0  0  0  0  0  0
    8.2771    3.4943    3.4249 H   0  0  0  0  0  0  0  0  0  0  0  0
   11.6858    3.6721    3.4489 H   0  0  0  0  0  0  0  0  0  0  0  0
   11.1878    4.0677   -0.9824 H   0  0  0  0  0  0  0  0  0  0  0  0
   11.2868   12.0939    3.2082 H   0  0  0  0  0  0  0  0  0  0  0  0
    2.1361    6.8527    1.9829 H   0  0  0  0  0  0  0  0  0  0  0  0
    2.2441    6.0893    4.5128 H   0  0  0  0  0  0  0  0  0  0  0  0
    4.8303    4.2545    1.3153 H   0  0  0  0  0  0  0  0  0  0  0  0
    5.0585    4.0258    3.9038 H   0  0  0  0  0  0  0  0  0  0  0  0
    0.5106    4.9675   -0.2203 H   0  0  0  0  0  0  0  0  0  0  0  0
    0.0000    1.8051   -1.3449 H   0  0  0  0  0  0  0  0  0  0  0  0
    1.2853    2.9193    3.4862 H   0  0  0  0  0  0  0  0  0  0  0  0
   14.5813    0.0000    0.4393 H   0  0  0  0  0  0  0  0  0  0  0  0
   12.2734    0.5392   -0.6918 H   0  0  0  0  0  0  0  0  0  0  0  0
   12.5264    0.7179    1.9210 H   0  0  0  0  0  0  0  0  0  0  0  0
   14.8873    3.4750    1.5484 H   0  0  0  0  0  0  0  0  0  0  0  0
   14.2916    2.9667   -2.4677 H   0  0  0  0  0  0  0  0  0  0  0  0
  1  2  1  0  0  0  0
  1  3  2  0  0  0  0
  1  8  1  0  0  0  0
  2  5  1  0  0  0  0
  2  7  1  6  0  0  0
  3  4  1  0  0  0  0
  3 17  1  0  0  0  0
  4  5  1  0  0  0  0
  4 21  1  6  0  0  0
  4 22  1  1  0  0  0
  5  6  1  6  0  0  0
  5 23  1  1  0  0  0
  6  7  1  0  0  0  0
  6 19  1  0  0  0  0
  6 24  1  6  0  0  0
  7 11  2  0  0  0  0
  8  9  2  0  0  0  0
  8 10  1  0  0  0  0
 10 25  1  0  0  0  0
 12 13  1  0  0  0  0
 12 16  1  0  0  0  0
 12 26  1  6  0  0  0
 12 27  1  1  0  0  0
 13 17  1  0  0  0  0
 13 28  1  6  0  0  0
 13 29  1  1  0  0  0
 14 15  2  0  0  0  0
 14 16  1  1  0  0  0
 14 30  1  6  0  0  0
 15 31  1  6  0  0  0
 16 32  1  1  0  0  0
 18 19  1  0  0  0  0
 18 33  1  0  0  0  0
 18 34  1  6  0  0  0
 18 35  1  1  0  0  0
 19 20  1  6  0  0  0
 19 36  1  1  0  0  0
 20 37  1  6  0  0  0
M  END
>  <Formula> (225)
C12H17N3O4S

>  <Name> (225)
(5R-(5-ALPHA,6-ALPHA(R*)))-6-(1-HYDROXYETHYL)-3-((2-((IMINOMETHYL)AMINO)ETHYL)THIO)-7-OXO-1-AZABICYCLO(3.2.0)HEPT-2-ENE-2-CARBOXYLIC ACID

>  <CAS-Nr> (225)
64221-86-9

>  <EINECS> (225)
264-734-5

>  <LD50-rat-oral> (225)
>5000

>  <Compound classification> (225)
AB-bLac

>  <Microorganism> (225)
Streptococcus sp.

>  <Microorganism type> (225)
miscellaneous

>  <Microorganism classification> (225)
Bac+

>  <MIC> (225)
0.004

>  <Annotation> (225)
range 0,004 - 0,064 ppm

>  <Method abbreviation> (225)
SDT

>  <Ref-Nr> (225)
6665

>  <Marker> (225)
0

>  <Method> (225)
Serial dilution test; Inoculum size: ---; Medium: basic medium in air (Enterobacteriaceae, Pseudomonas, Acinetobacter, Staphylococcus, Enterococcus), basic medium + 5% defibrinated horse blood - in 5 % CO2 (Streptococcus, Pneumococcus), basic medium +1 % hemoglobin + 1 % IsoVitaleX - in 5 % CO2 (Haemophilus influenzae, Moraxella catarrhalis); pH: ---; Incubation-temperature: 35-37 degrees Centigrade; Incubation-time: ---; Solubility enhancer: ---

>  <Reference> (225)
Kahlmeter, G., Olsson-Liljequist, B.: Antibiotics - MICs of Isolates that Lack Resistance Mechanisms; Landstinget Kronoberg (http://www.ltkronoberg.se) (1998)

>  <mol_id> (225)
2161

>  <LD50-mouse-oral> (225)
>5000

>  <MolWeight> (225)
299.34

>  <Nickname> (225)
Imipenem

>  <other Names> (225)
Primaxin, (5R,6S)-3-((2-(Formimidoylamino)ethyl)thio)-6-((R)-1-hydroxyethyl)-7-oxo-1-azabicyclo(3.2.0)hept-2-ene-2-carboxylic acid monohydrate, Imipenem, MK 0787, N-Formimidoylthienamycin, MK-787

>  <LD50-mou-iv> (225)
1660

$$$$

csChmFindW11180110282D

 37 38  0  0  0  0  0  0  0  0999 V2000
    9.8127    7.7069    2.5628 C   0  0  0  0  0  0  0  0  0  0  0  0
   11.5933    6.6576    2.3889 N   0  0  0  0  0  0  0  0  0  0  0  0
    8.1971    6.5258    2.5242 C   0  0  0  0  0  0  0  0  0  0  0  0
    8.8153    4.4412    2.2239 C   0  0  0  0  0  0  0  0  0  0  0  0
   11.0372    4.5379    2.2487 C   0  0  0  0  0  0  0  0  0  0  0  0
   12.1357    4.3818    0.2887 C   0  0  0  0  0  0  0  0  0  0  0  0
   12.5519    6.5718    0.4963 C   0  0  0  0  0  0  0  0  0  0  0  0
    9.7642    9.8085    2.8524 C   0  0  0  0  0  0  0  0  0  0  0  0
    8.3067   10.8525    2.9509 O   0  0  0  0  0  0  0  0  0  0  0  0
   11.5079   10.7115    3.0392 O   0  0  0  0  0  0  0  0  0  0  0  0
   13.3784    7.7913   -0.4728 O   0  0  0  0  0  0  0  0  0  0  0  0
    2.4726    5.5926    2.9702 C   0  0  0  0  0  0  0  0  0  0  0  0
    4.6011    5.0302    2.7190 C   0  0  0  0  0  0  0  0  0  0  0  0
    0.6866    3.6216    0.6658 C   0  0  0  0  0  0  0  0  0  0  0  0
    0.4431    1.8777    0.0285 N   0  0  0  0  0  0  0  0  0  0  0  0
    1.0873    4.0697    2.6213 N   0  0  0  0  0  0  0  0  0  0  0  0
    5.9142    7.2204    2.7815 S   0  0  0  0  0  0  0  0  0  0  0  0
   13.2759    0.9543    0.5084 C   0  0  0  0  0  0  0  0  0  0  0  0
   13.8940    3.0592    0.3160 C   0  0  0  0  0  0  0  0  0  0  0  0
   15.0559    3.3308   -1.3543 O   0  0  0  0  0  0  0  0  0  0  0  0
    8.2512    3.8633    0.8180 H   0  0  0  0  0  0  0  0  0  0  0  0
    8.2771    3.4943    3.4249 H   0  0  0  0  0  0  0  0  0  0  0  0
   11.6858    3.6721    3.4489 H   0  0  0  0  0  0  0  0  0  0  0  0
   11.1878    4.0677   -0.9824 H   0  0  0  0  0  0  0  0  0  0  0  0
   11.2868   12.0939    3.2082 H   0  0  0  0  0  0  0  0  0  0  0  0
    2.1361    6.8527    1.9829 H   0  0  0  0  0  0  0  0  0  0  0  0
    2.2441    6.0893    4.5128 H   0  0  0  0  0  0  0  0  0  0  0  0
    4.8303    4.2545    1.3153 H   0  0  0  0  0  0  0  0  0  0  0  0
    5.0585    4.0258    3.9038 H   0  0  0  0  0  0  0  0  0  0  0  0
    0.5106    4.9675   -0.2203 H   0  0  0  0  0  0  0  0  0  0  0  0
    0.0000    1.8051   -1.3449 H   0  0  0  0  0  0  0  0  0  0  0  0
    1.2853    2.9193    3.4862 H   0  0  0  0  0  0  0  0  0  0  0  0
   14.5813    0.0000    0.4393 H   0  0  0  0  0  0  0  0  0  0  0  0
   12.2734    0.5392   -0.6918 H   0  0  0  0  0  0  0  0  0  0  0  0
   12.5264    0.7179    1.9210 H   0  0  0  0  0  0  0  0  0  0  0  0
   14.8873    3.4750    1.5484 H   0  0  0  0  0  0  0  0  0  0  0  0
   14.2916    2.9667   -2.4677 H   0  0  0  0  0  0  0  0  0  0  0  0
  1  2  1  0  0  0  0
  1  3  2  0  0  0  0
  1  8  1  0  0  0  0
  2  5  1  0  0  0  0
  2  7  1  6  0  0  0
  3  4  1  0  0  0  0
  3 17  1  0  0  0  0
  4  5  1  0  0  0  0
  4 21  1  6  0  0  0
  4 22  1  1  0  0  0
  5  6  1  6  0  0  0
  5 23  1  1  0  0  0
  6  7  1  0  0  0  0
  6 19  1  0  0  0  0
  6 24  1  6  0  0  0
  7 11  2  0  0  0  0
  8  9  2  0  0  0  0
  8 10  1  0  0  0  0
 10 25  1  0  0  0  0
 12 13  1  0  0  0  0
 12 16  1  0  0  0  0
 12 26  1  6  0  0  0
 12 27  1  1  0  0  0
 13 17  1  0  0  0  0
 13 28  1  6  0  0  0
 13 29  1  1  0  0  0
 14 15  2  0  0  0  0
 14 16  1  1  0  0  0
 14 30  1  6  0  0  0
 15 31  1  6  0  0  0
 16 32  1  1  0  0  0
 18 19  1  0  0  0  0
 18 33  1  0  0  0  0
 18 34  1  6  0  0  0
 18 35  1  1  0  0  0
 19 20  1  6  0  0  0
 19 36  1  1  0  0  0
 20 37  1  6  0  0  0
M  END
>  <Formula> (226)
C12H17N3O4S

>  <Name> (226)
(5R-(5-ALPHA,6-ALPHA(R*)))-6-(1-HYDROXYETHYL)-3-((2-((IMINOMETHYL)AMINO)ETHYL)THIO)-7-OXO-1-AZABICYCLO(3.2.0)HEPT-2-ENE-2-CARBOXYLIC ACID

>  <CAS-Nr> (226)
64221-86-9

>  <EINECS> (226)
264-734-5

>  <LD50-rat-oral> (226)
>5000

>  <Compound classification> (226)
AB-bLac

>  <Microorganism> (226)
Streptococcus sp.

>  <Microorganism type> (226)
B

>  <Microorganism classification> (226)
Bac+

>  <MIC> (226)
0.008

>  <Annotation> (226)
range 0,008 - 0,032 ppm

>  <Method abbreviation> (226)
SDT

>  <Ref-Nr> (226)
6665

>  <Marker> (226)
0

>  <Method> (226)
Serial dilution test; Inoculum size: ---; Medium: basic medium in air (Enterobacteriaceae, Pseudomonas, Acinetobacter, Staphylococcus, Enterococcus), basic medium + 5% defibrinated horse blood - in 5 % CO2 (Streptococcus, Pneumococcus), basic medium +1 % hemoglobin + 1 % IsoVitaleX - in 5 % CO2 (Haemophilus influenzae, Moraxella catarrhalis); pH: ---; Incubation-temperature: 35-37 degrees Centigrade; Incubation-time: ---; Solubility enhancer: ---

>  <Reference> (226)
Kahlmeter, G., Olsson-Liljequist, B.: Antibiotics - MICs of Isolates that Lack Resistance Mechanisms; Landstinget Kronoberg (http://www.ltkronoberg.se) (1998)

>  <mol_id> (226)
2161

>  <LD50-mouse-oral> (226)
>5000

>  <MolWeight> (226)
299.34

>  <Nickname> (226)
Imipenem

>  <other Names> (226)
Primaxin, (5R,6S)-3-((2-(Formimidoylamino)ethyl)thio)-6-((R)-1-hydroxyethyl)-7-oxo-1-azabicyclo(3.2.0)hept-2-ene-2-carboxylic acid monohydrate, Imipenem, MK 0787, N-Formimidoylthienamycin, MK-787

>  <LD50-mou-iv> (226)
1660

$$$$

csChmFindW11180110282D

 28 28  0  0  0  0  0  0  0  0999 V2000
    2.7204    1.0763   -0.0075 C   0  0  0  0  0  0  0  0  0  0  0  0
    4.2938    1.0775   -0.0063 C   0  0  0  0  0  0  0  0  0  0  0  0
    1.9450    2.4693   -0.0074 C   0  0  0  0  0  0  0  0  0  0  0  0
    5.0977    2.4510   -0.0052 C   0  0  0  0  0  0  0  0  0  0  0  0
    2.7390    3.8479   -0.0061 C   0  0  0  0  0  0  0  0  0  0  0  0
    0.3914    2.3963   -0.0084 O   0  0  0  0  0  0  0  0  0  0  0  0
    4.3152    3.8310   -0.0051 C   0  0  0  0  0  0  0  0  0  0  0  0
    6.7594    2.3945   -0.0041 C   0  0  0  0  0  0  0  0  0  0  0  0
    7.4467    3.7873   -0.0032 O   0  0  0  0  0  0  0  0  0  0  0  0
    7.5804    1.2605   -0.0038 O   0  0  0  0  0  0  0  0  0  0  0  0
    9.0774    3.7844   -0.0019 C   0  0  0  0  0  0  0  0  0  0  0  0
    9.5534    5.4362   -0.0013 C   0  0  0  0  0  0  0  0  0  0  0  0
   11.2641    5.5585    0.0005 C   0  0  0  0  0  0  0  0  0  0  0  0
   11.7684    7.1899    0.0008 C   0  0  0  0  0  0  0  0  0  0  0  0
    2.0748    0.0112   -0.0084 H   0  0  0  0  0  0  0  0  0  0  0  0
    4.9277    0.0000   -0.0065 H   0  0  0  0  0  0  0  0  0  0  0  0
    2.1207    4.9288   -0.0060 H   0  0  0  0  0  0  0  0  0  0  0  0
    0.0000    3.4222   -0.0083 H   0  0  0  0  0  0  0  0  0  0  0  0
    4.9560    4.9034   -0.0042 H   0  0  0  0  0  0  0  0  0  0  0  0
    9.4871    3.1729   -1.0371 H   0  0  0  0  0  0  0  0  0  0  0  0
    9.4857    3.1723    1.0335 H   0  0  0  0  0  0  0  0  0  0  0  0
    9.0717    6.0169    1.0208 H   0  0  0  0  0  0  0  0  0  0  0  0
    9.0739    6.0166   -1.0246 H   0  0  0  0  0  0  0  0  0  0  0  0
   11.7338    4.9662   -1.0223 H   0  0  0  0  0  0  0  0  0  0  0  0
   11.7319    4.9659    1.0240 H   0  0  0  0  0  0  0  0  0  0  0  0
   13.0319    7.2589    0.0025 H   0  0  0  0  0  0  0  0  0  0  0  0
   11.3337    7.7924    1.0256 H   0  0  0  0  0  0  0  0  0  0  0  0
   11.3365    7.7917   -1.0256 H   0  0  0  0  0  0  0  0  0  0  0  0
  1  2  2  0  0  0  0
  1  3  1  0  0  0  0
  1 15  1  0  0  0  0
  2  4  1  0  0  0  0
  2 16  1  0  0  0  0
  3  5  2  0  0  0  0
  3  6  1  0  0  0  0
  4  7  2  0  0  0  0
  4  8  1  0  0  0  0
  5  7  1  0  0  0  0
  5 17  1  0  0  0  0
  6 18  1  0  0  0  0
  7 19  1  0  0  0  0
  8  9  1  0  0  0  0
  8 10  2  0  0  0  0
  9 11  1  0  0  0  0
 11 12  1  0  0  0  0
 11 20  1  6  0  0  0
 11 21  1  1  0  0  0
 12 13  1  0  0  0  0
 12 22  1  1  0  0  0
 12 23  1  6  0  0  0
 13 14  1  0  0  0  0
 13 24  1  6  0  0  0
 13 25  1  1  0  0  0
 14 26  1  0  0  0  0
 14 27  1  1  0  0  0
 14 28  1  6  0  0  0
M  END
>  <Formula> (227)
C11H14O3

>  <Name> (227)
4-HYDROXY-BENZOIC ACID, BUTYL ESTER

>  <CAS-Nr> (227)
94-26-8

>  <EINECS> (227)
202-318-7

>  <21 CFR> (227)
172.515

>  <Compound classification> (227)
Ar-COOR

>  <Microorganism> (227)
Penicillium chrysogenum

>  <Microorganism type> (227)
ATCC 9480

>  <Microorganism classification> (227)
fungi

>  <MIC> (227)
63

>  <Method abbreviation> (227)
ADlT

>  <Ref-Nr> (227)
6733

>  <Marker> (227)
0

>  <Method> (227)
Agar dilution test; Inoculum size: adjusted; Medium: tryptic soy agar; pH: ---; Incubation-temperature: 30 (fungi), 35 (bacteria, yeast) degrees Centigrade; Incubation-time: 48 (bacteria), 72-96h (fungi); Solubility enhancer: ---

>  <Reference> (227)
Loncrini, D.F., Haag, T.E., Freebersyser, S.R.: Compositions of p-Hydroxybenzoic Acid Esters and Methods of Preparation and Use; US 4,496,576 (1985)

>  <mol_id> (227)
997

>  <LD50-mouse-oral> (227)
13200

>  <LD50-mou-ip> (227)
230

>  <MolWeight> (227)
194.22

>  <Nickname> (227)
Butylparaben

>  <other Names> (227)
Butyl p-hydroxybenzoate

$$$$

csChmFindW11180110282D

 79 81  0  0  0  0  0  0  0  0999 V2000
   14.4282    9.3885    1.1107 C   0  0  0  0  0  0  0  0  0  0  0  0
   16.2760   10.1392    0.5085 C   0  0  0  0  0  0  0  0  0  0  0  0
   17.5915   10.1072    1.9490 O   0  0  0  0  0  0  0  0  0  0  0  0
   17.9506    8.3141    2.6763 C   0  0  0  0  0  0  0  0  0  0  0  0
   16.1713    7.4690    3.5270 C   0  0  0  0  0  0  0  0  0  0  0  0
   14.7717    7.5054    1.9438 C   0  0  0  0  0  0  0  0  0  0  0  0
   18.7089    7.0466    1.2007 C   0  0  0  0  0  0  0  0  0  0  0  0
   18.5173    5.2045    1.2599 C   0  0  0  0  0  0  0  0  0  0  0  0
   17.5403    4.3139    2.7913 C   0  0  0  0  0  0  0  0  0  0  0  0
   16.4932    5.4551    4.1896 C   0  0  0  0  0  0  0  0  0  0  0  0
   17.6980    2.4752    3.0065 C   0  0  0  0  0  0  0  0  0  0  0  0
   16.7772    1.4712    4.5711 C   0  0  0  0  0  0  0  0  0  0  0  0
   14.8630    2.3324    4.8135 C   0  0  0  0  0  0  0  0  0  0  0  0
   14.8827    4.4220    5.1422 C   0  0  0  0  0  0  0  0  0  0  0  0
   14.0785    6.1446    1.2726 O   0  0  0  0  0  0  0  0  0  0  0  0
   16.1868   12.0833    0.2085 O   0  0  0  0  0  0  0  0  0  0  0  0
   15.4902    8.6615    5.1579 C   0  0  0  0  0  0  0  0  0  0  0  0
   19.5187    8.5912    4.0752 C   0  0  0  0  0  0  0  0  0  0  0  0
   17.9416    1.4954    6.3354 C   0  0  0  0  0  0  0  0  0  0  0  0
   13.1345    5.1211    4.6069 O   0  0  0  0  0  0  0  0  0  0  0  0
   11.7094    4.9548    5.8134 C   0  0  0  0  0  0  0  0  0  0  0  0
   11.8372    4.3334    7.3558 O   0  0  0  0  0  0  0  0  0  0  0  0
    9.8948    5.5889    4.9504 C   0  0  0  0  0  0  0  0  0  0  0  0
    9.6633    7.6842    5.1367 C   0  0  0  0  0  0  0  0  0  0  0  0
    7.7424    8.3901    4.7166 C   0  0  0  0  0  0  0  0  0  0  0  0
    6.9921    8.1312    3.0307 C   0  0  0  0  0  0  0  0  0  0  0  0
    5.1701    8.7676    2.4308 C   0  0  0  0  0  0  0  0  0  0  0  0
    4.4410    8.2744    0.7826 C   0  0  0  0  0  0  0  0  0  0  0  0
    2.6136    8.8798    0.1406 C   0  0  0  0  0  0  0  0  0  0  0  0
    1.7326    8.0490   -1.2904 C   0  0  0  0  0  0  0  0  0  0  0  0
    2.3389    6.4116   -2.3019 C   0  0  0  0  0  0  0  0  0  0  0  0
    1.3110    5.6964   -3.6873 C   0  0  0  0  0  0  0  0  0  0  0  0
    1.9183    4.0174   -4.6814 C   0  0  0  0  0  0  0  0  0  0  0  0
    3.4865    3.1027   -4.2800 O   0  0  0  0  0  0  0  0  0  0  0  0
    0.9604    3.4056   -5.9304 O   0  0  0  0  0  0  0  0  0  0  0  0
    6.8200    9.3685    6.3052 C   0  0  0  0  0  0  0  0  0  0  0  0
   10.9214    8.6095    3.9352 O   0  0  0  0  0  0  0  0  0  0  0  0
    8.2781    4.5365    5.8357 C   0  0  0  0  0  0  0  0  0  0  0  0
    1.7027   10.5251    1.0502 C   0  0  0  0  0  0  0  0  0  0  0  0
   13.4778    9.2865   -0.0912 H   0  0  0  0  0  0  0  0  0  0  0  0
   13.7582   10.2937    2.1510 H   0  0  0  0  0  0  0  0  0  0  0  0
   16.8324    9.4680   -0.7503 H   0  0  0  0  0  0  0  0  0  0  0  0
   19.5217    7.6698    0.0775 H   0  0  0  0  0  0  0  0  0  0  0  0
   19.1751    4.3626    0.1794 H   0  0  0  0  0  0  0  0  0  0  0  0
   17.5610    5.5909    5.2978 H   0  0  0  0  0  0  0  0  0  0  0  0
   18.5245    1.6471    2.0373 H   0  0  0  0  0  0  0  0  0  0  0  0
   16.5795    0.0000    4.1479 H   0  0  0  0  0  0  0  0  0  0  0  0
   14.1048    1.6155    5.9422 H   0  0  0  0  0  0  0  0  0  0  0  0
   14.0748    2.0452    3.5207 H   0  0  0  0  0  0  0  0  0  0  0  0
   15.0496    4.6786    6.6532 H   0  0  0  0  0  0  0  0  0  0  0  0
   17.2622   12.5605    0.7596 H   0  0  0  0  0  0  0  0  0  0  0  0
   14.0672    8.3212    5.5999 H   0  0  0  0  0  0  0  0  0  0  0  0
   15.4887   10.1614    4.8476 H   0  0  0  0  0  0  0  0  0  0  0  0
   16.3689    8.4721    6.3996 H   0  0  0  0  0  0  0  0  0  0  0  0
   19.9904    7.2815    4.7153 H   0  0  0  0  0  0  0  0  0  0  0  0
   19.1266    9.5536    5.2022 H   0  0  0  0  0  0  0  0  0  0  0  0
   20.7505    9.2075    3.3959 H   0  0  0  0  0  0  0  0  0  0  0  0
   17.2425    0.7217    7.4622 H   0  0  0  0  0  0  0  0  0  0  0  0
   18.2009    2.9158    6.8477 H   0  0  0  0  0  0  0  0  0  0  0  0
   19.3073    0.8356    6.0967 H   0  0  0  0  0  0  0  0  0  0  0  0
    9.9211    5.2006    3.4595 H   0  0  0  0  0  0  0  0  0  0  0  0
   10.0587    8.0814    6.5679 H   0  0  0  0  0  0  0  0  0  0  0  0
    7.8204    7.3611    2.0146 H   0  0  0  0  0  0  0  0  0  0  0  0
    4.3539    9.6517    3.3489 H   0  0  0  0  0  0  0  0  0  0  0  0
    5.2616    7.3386   -0.0846 H   0  0  0  0  0  0  0  0  0  0  0  0
    0.3917    8.6330   -1.7096 H   0  0  0  0  0  0  0  0  0  0  0  0
    3.6339    5.7191   -1.9287 H   0  0  0  0  0  0  0  0  0  0  0  0
    0.0000    6.3465   -4.0958 H   0  0  0  0  0  0  0  0  0  0  0  0
    3.5333    2.0686   -5.1290 H   0  0  0  0  0  0  0  0  0  0  0  0
    5.3871    9.8260    6.0393 H   0  0  0  0  0  0  0  0  0  0  0  0
    7.6316   10.6127    6.6904 H   0  0  0  0  0  0  0  0  0  0  0  0
    6.7582    8.4355    7.5224 H   0  0  0  0  0  0  0  0  0  0  0  0
   10.2580    8.9101    2.8594 H   0  0  0  0  0  0  0  0  0  0  0  0
    6.9508    4.8135    5.1181 H   0  0  0  0  0  0  0  0  0  0  0  0
    8.0991    4.9220    7.3106 H   0  0  0  0  0  0  0  0  0  0  0  0
    8.5037    3.0190    5.7662 H   0  0  0  0  0  0  0  0  0  0  0  0
    0.5725   11.1272    0.2067 H   0  0  0  0  0  0  0  0  0  0  0  0
    2.7135   11.6580    1.2719 H   0  0  0  0  0  0  0  0  0  0  0  0
    1.1005   10.1181    2.4019 H   0  0  0  0  0  0  0  0  0  0  0  0
  1  2  1  0  0  0  0
  1  6  1  0  0  0  0
  1 40  1  6  0  0  0
  1 41  1  1  0  0  0
  2  3  1  1  0  0  0
  2 16  1  0  0  0  0
  2 42  1  6  0  0  0
  3  4  1  0  0  0  0
  4  5  1  0  0  0  0
  4  7  1  6  0  0  0
  4 18  1  1  0  0  0
  5  6  1  6  0  0  0
  5 10  1  0  0  0  0
  5 17  1  1  0  0  0
  6 15  2  0  0  0  0
  7  8  2  0  0  0  0
  7 43  1  6  0  0  0
  8  9  1  1  0  0  0
  8 44  1  6  0  0  0
  9 10  1  1  0  0  0
  9 11  2  0  0  0  0
 10 14  1  0  0  0  0
 10 45  1  1  0  0  0
 11 12  1  1  0  0  0
 11 46  1  6  0  0  0
 12 13  1  0  0  0  0
 12 19  1  1  0  0  0
 12 47  1  0  0  0  0
 13 14  1  0  0  0  0
 13 48  1  1  0  0  0
 13 49  1  6  0  0  0
 14 20  1  0  0  0  0
 14 50  1  1  0  0  0
 16 51  1  0  0  0  0
 17 52  1  0  0  0  0
 17 53  1  0  0  0  0
 17 54  1  1  0  0  0
 18 55  1  0  0  0  0
 18 56  1  1  0  0  0
 18 57  1  0  0  0  0
 19 58  1  1  0  0  0
 19 59  1  0  0  0  0
 19 60  1  0  0  0  0
 20 21  1  1  0  0  0
 21 22  2  0  0  0  0
 21 23  1  0  0  0  0
 23 24  1  0  0  0  0
 23 38  1  0  0  0  0
 23 61  1  6  0  0  0
 24 25  1  0  0  0  0
 24 37  1  6  0  0  0
 24 62  1  1  0  0  0
 25 26  2  0  0  0  0
 25 36  1  1  0  0  0
 26 27  1  0  0  0  0
 26 63  1  6  0  0  0
 27 28  2  0  0  0  0
 27 64  1  1  0  0  0
 28 29  1  0  0  0  0
 28 65  1  6  0  0  0
 29 30  2  0  0  0  0
 29 39  1  0  0  0  0
 30 31  1  6  0  0  0
 30 66  1  0  0  0  0
 31 32  2  0  0  0  0
 31 67  1  0  0  0  0
 32 33  1  6  0  0  0
 32 68  1  0  0  0  0
 33 34  1  0  0  0  0
 33 35  2  0  0  0  0
 34 69  1  6  0  0  0
 36 70  1  0  0  0  0
 36 71  1  0  0  0  0
 36 72  1  1  0  0  0
 37 73  1  6  0  0  0
 38 74  1  6  0  0  0
 38 75  1  1  0  0  0
 38 76  1  0  0  0  0
 39 77  1  6  0  0  0
 39 78  1  0  0  0  0
 39 79  1  1  0  0  0
M  END
>  <Formula> (228)
C31H40O8

>  <Name> (228)
(2E,4Z,6E,8E)-10-HYDROXY-5,9,11-TRIMETHYL-DODECA-2,4,6,8-TETRAENEDIOIC ACID, 12-(3-HYDROXY-4A,8,10B-TRIMETHYL-1-OXO-2,3,4A,8,9,10,10A,10B-OCTAHYDRO-1H-BENZO[F]CHROMEN-10-YL) ESTER

>  <Compound classification> (228)
Flavonoid

>  <Microorganism> (228)
Candida albicans

>  <Microorganism type> (228)
ATCC 62376

>  <Microorganism classification> (228)
yeast

>  <MIC> (228)
3.12

>  <Method abbreviation> (228)
SDT

>  <Ref-Nr> (228)
6779

>  <Marker> (228)
0

>  <Method> (228)
Serial dilution test; Inoculum size: adjusted by optical density; Medium: Mueller-Hinton broth; pH: ---; Incubation-temperature: 35-37 degrees Centigrade; Incubation-time: 16-20h; Solubility enhancer: methanol

>  <Reference> (228)
Brill, G.M., McAlpine, J.B., Rasmussen, R.R.: Antifungal Compounds; US 5,356,933 (1994)

>  <mol_id> (228)
3595

>  <MolWeight> (228)
540.65

>  <Nickname> (228)
Calbistrin B

$$$$

csChmFindW11180110282D

 79 81  0  0  0  0  0  0  0  0999 V2000
   14.4282    9.3885    1.1107 C   0  0  0  0  0  0  0  0  0  0  0  0
   16.2760   10.1392    0.5085 C   0  0  0  0  0  0  0  0  0  0  0  0
   17.5915   10.1072    1.9490 O   0  0  0  0  0  0  0  0  0  0  0  0
   17.9506    8.3141    2.6763 C   0  0  0  0  0  0  0  0  0  0  0  0
   16.1713    7.4690    3.5270 C   0  0  0  0  0  0  0  0  0  0  0  0
   14.7717    7.5054    1.9438 C   0  0  0  0  0  0  0  0  0  0  0  0
   18.7089    7.0466    1.2007 C   0  0  0  0  0  0  0  0  0  0  0  0
   18.5173    5.2045    1.2599 C   0  0  0  0  0  0  0  0  0  0  0  0
   17.5403    4.3139    2.7913 C   0  0  0  0  0  0  0  0  0  0  0  0
   16.4932    5.4551    4.1896 C   0  0  0  0  0  0  0  0  0  0  0  0
   17.6980    2.4752    3.0065 C   0  0  0  0  0  0  0  0  0  0  0  0
   16.7772    1.4712    4.5711 C   0  0  0  0  0  0  0  0  0  0  0  0
   14.8630    2.3324    4.8135 C   0  0  0  0  0  0  0  0  0  0  0  0
   14.8827    4.4220    5.1422 C   0  0  0  0  0  0  0  0  0  0  0  0
   14.0785    6.1446    1.2726 O   0  0  0  0  0  0  0  0  0  0  0  0
   16.1868   12.0833    0.2085 O   0  0  0  0  0  0  0  0  0  0  0  0
   15.4902    8.6615    5.1579 C   0  0  0  0  0  0  0  0  0  0  0  0
   19.5187    8.5912    4.0752 C   0  0  0  0  0  0  0  0  0  0  0  0
   17.9416    1.4954    6.3354 C   0  0  0  0  0  0  0  0  0  0  0  0
   13.1345    5.1211    4.6069 O   0  0  0  0  0  0  0  0  0  0  0  0
   11.7094    4.9548    5.8134 C   0  0  0  0  0  0  0  0  0  0  0  0
   11.8372    4.3334    7.3558 O   0  0  0  0  0  0  0  0  0  0  0  0
    9.8948    5.5889    4.9504 C   0  0  0  0  0  0  0  0  0  0  0  0
    9.6633    7.6842    5.1367 C   0  0  0  0  0  0  0  0  0  0  0  0
    7.7424    8.3901    4.7166 C   0  0  0  0  0  0  0  0  0  0  0  0
    6.9921    8.1312    3.0307 C   0  0  0  0  0  0  0  0  0  0  0  0
    5.1701    8.7676    2.4308 C   0  0  0  0  0  0  0  0  0  0  0  0
    4.4410    8.2744    0.7826 C   0  0  0  0  0  0  0  0  0  0  0  0
    2.6136    8.8798    0.1406 C   0  0  0  0  0  0  0  0  0  0  0  0
    1.7326    8.0490   -1.2904 C   0  0  0  0  0  0  0  0  0  0  0  0
    2.3389    6.4116   -2.3019 C   0  0  0  0  0  0  0  0  0  0  0  0
    1.3110    5.6964   -3.6873 C   0  0  0  0  0  0  0  0  0  0  0  0
    1.9183    4.0174   -4.6814 C   0  0  0  0  0  0  0  0  0  0  0  0
    3.4865    3.1027   -4.2800 O   0  0  0  0  0  0  0  0  0  0  0  0
    0.9604    3.4056   -5.9304 O   0  0  0  0  0  0  0  0  0  0  0  0
    6.8200    9.3685    6.3052 C   0  0  0  0  0  0  0  0  0  0  0  0
   10.9214    8.6095    3.9352 O   0  0  0  0  0  0  0  0  0  0  0  0
    8.2781    4.5365    5.8357 C   0  0  0  0  0  0  0  0  0  0  0  0
    1.7027   10.5251    1.0502 C   0  0  0  0  0  0  0  0  0  0  0  0
   13.4778    9.2865   -0.0912 H   0  0  0  0  0  0  0  0  0  0  0  0
   13.7582   10.2937    2.1510 H   0  0  0  0  0  0  0  0  0  0  0  0
   16.8324    9.4680   -0.7503 H   0  0  0  0  0  0  0  0  0  0  0  0
   19.5217    7.6698    0.0775 H   0  0  0  0  0  0  0  0  0  0  0  0
   19.1751    4.3626    0.1794 H   0  0  0  0  0  0  0  0  0  0  0  0
   17.5610    5.5909    5.2978 H   0  0  0  0  0  0  0  0  0  0  0  0
   18.5245    1.6471    2.0373 H   0  0  0  0  0  0  0  0  0  0  0  0
   16.5795    0.0000    4.1479 H   0  0  0  0  0  0  0  0  0  0  0  0
   14.1048    1.6155    5.9422 H   0  0  0  0  0  0  0  0  0  0  0  0
   14.0748    2.0452    3.5207 H   0  0  0  0  0  0  0  0  0  0  0  0
   15.0496    4.6786    6.6532 H   0  0  0  0  0  0  0  0  0  0  0  0
   17.2622   12.5605    0.7596 H   0  0  0  0  0  0  0  0  0  0  0  0
   14.0672    8.3212    5.5999 H   0  0  0  0  0  0  0  0  0  0  0  0
   15.4887   10.1614    4.8476 H   0  0  0  0  0  0  0  0  0  0  0  0
   16.3689    8.4721    6.3996 H   0  0  0  0  0  0  0  0  0  0  0  0
   19.9904    7.2815    4.7153 H   0  0  0  0  0  0  0  0  0  0  0  0
   19.1266    9.5536    5.2022 H   0  0  0  0  0  0  0  0  0  0  0  0
   20.7505    9.2075    3.3959 H   0  0  0  0  0  0  0  0  0  0  0  0
   17.2425    0.7217    7.4622 H   0  0  0  0  0  0  0  0  0  0  0  0
   18.2009    2.9158    6.8477 H   0  0  0  0  0  0  0  0  0  0  0  0
   19.3073    0.8356    6.0967 H   0  0  0  0  0  0  0  0  0  0  0  0
    9.9211    5.2006    3.4595 H   0  0  0  0  0  0  0  0  0  0  0  0
   10.0587    8.0814    6.5679 H   0  0  0  0  0  0  0  0  0  0  0  0
    7.8204    7.3611    2.0146 H   0  0  0  0  0  0  0  0  0  0  0  0
    4.3539    9.6517    3.3489 H   0  0  0  0  0  0  0  0  0  0  0  0
    5.2616    7.3386   -0.0846 H   0  0  0  0  0  0  0  0  0  0  0  0
    0.3917    8.6330   -1.7096 H   0  0  0  0  0  0  0  0  0  0  0  0
    3.6339    5.7191   -1.9287 H   0  0  0  0  0  0  0  0  0  0  0  0
    0.0000    6.3465   -4.0958 H   0  0  0  0  0  0  0  0  0  0  0  0
    3.5333    2.0686   -5.1290 H   0  0  0  0  0  0  0  0  0  0  0  0
    5.3871    9.8260    6.0393 H   0  0  0  0  0  0  0  0  0  0  0  0
    7.6316   10.6127    6.6904 H   0  0  0  0  0  0  0  0  0  0  0  0
    6.7582    8.4355    7.5224 H   0  0  0  0  0  0  0  0  0  0  0  0
   10.2580    8.9101    2.8594 H   0  0  0  0  0  0  0  0  0  0  0  0
    6.9508    4.8135    5.1181 H   0  0  0  0  0  0  0  0  0  0  0  0
    8.0991    4.9220    7.3106 H   0  0  0  0  0  0  0  0  0  0  0  0
    8.5037    3.0190    5.7662 H   0  0  0  0  0  0  0  0  0  0  0  0
    0.5725   11.1272    0.2067 H   0  0  0  0  0  0  0  0  0  0  0  0
    2.7135   11.6580    1.2719 H   0  0  0  0  0  0  0  0  0  0  0  0
    1.1005   10.1181    2.4019 H   0  0  0  0  0  0  0  0  0  0  0  0
  1  2  1  0  0  0  0
  1  6  1  0  0  0  0
  1 40  1  6  0  0  0
  1 41  1  1  0  0  0
  2  3  1  1  0  0  0
  2 16  1  0  0  0  0
  2 42  1  6  0  0  0
  3  4  1  0  0  0  0
  4  5  1  0  0  0  0
  4  7  1  6  0  0  0
  4 18  1  1  0  0  0
  5  6  1  6  0  0  0
  5 10  1  0  0  0  0
  5 17  1  1  0  0  0
  6 15  2  0  0  0  0
  7  8  2  0  0  0  0
  7 43  1  6  0  0  0
  8  9  1  1  0  0  0
  8 44  1  6  0  0  0
  9 10  1  1  0  0  0
  9 11  2  0  0  0  0
 10 14  1  0  0  0  0
 10 45  1  1  0  0  0
 11 12  1  1  0  0  0
 11 46  1  6  0  0  0
 12 13  1  0  0  0  0
 12 19  1  1  0  0  0
 12 47  1  0  0  0  0
 13 14  1  0  0  0  0
 13 48  1  1  0  0  0
 13 49  1  6  0  0  0
 14 20  1  0  0  0  0
 14 50  1  1  0  0  0
 16 51  1  0  0  0  0
 17 52  1  0  0  0  0
 17 53  1  0  0  0  0
 17 54  1  1  0  0  0
 18 55  1  0  0  0  0
 18 56  1  1  0  0  0
 18 57  1  0  0  0  0
 19 58  1  1  0  0  0
 19 59  1  0  0  0  0
 19 60  1  0  0  0  0
 20 21  1  1  0  0  0
 21 22  2  0  0  0  0
 21 23  1  0  0  0  0
 23 24  1  0  0  0  0
 23 38  1  0  0  0  0
 23 61  1  6  0  0  0
 24 25  1  0  0  0  0
 24 37  1  6  0  0  0
 24 62  1  1  0  0  0
 25 26  2  0  0  0  0
 25 36  1  1  0  0  0
 26 27  1  0  0  0  0
 26 63  1  6  0  0  0
 27 28  2  0  0  0  0
 27 64  1  1  0  0  0
 28 29  1  0  0  0  0
 28 65  1  6  0  0  0
 29 30  2  0  0  0  0
 29 39  1  0  0  0  0
 30 31  1  6  0  0  0
 30 66  1  0  0  0  0
 31 32  2  0  0  0  0
 31 67  1  0  0  0  0
 32 33  1  6  0  0  0
 32 68  1  0  0  0  0
 33 34  1  0  0  0  0
 33 35  2  0  0  0  0
 34 69  1  6  0  0  0
 36 70  1  0  0  0  0
 36 71  1  0  0  0  0
 36 72  1  1  0  0  0
 37 73  1  6  0  0  0
 38 74  1  6  0  0  0
 38 75  1  1  0  0  0
 38 76  1  0  0  0  0
 39 77  1  6  0  0  0
 39 78  1  0  0  0  0
 39 79  1  1  0  0  0
M  END
>  <Formula> (229)
C31H40O8

>  <Name> (229)
(2E,4Z,6E,8E)-10-HYDROXY-5,9,11-TRIMETHYL-DODECA-2,4,6,8-TETRAENEDIOIC ACID, 12-(3-HYDROXY-4A,8,10B-TRIMETHYL-1-OXO-2,3,4A,8,9,10,10A,10B-OCTAHYDRO-1H-BENZO[F]CHROMEN-10-YL) ESTER

>  <Compound classification> (229)
Flavonoid

>  <Microorganism> (229)
Candida albicans

>  <Microorganism type> (229)
CCH 442

>  <Microorganism classification> (229)
yeast

>  <MIC> (229)
3.12

>  <Method abbreviation> (229)
SDT

>  <Ref-Nr> (229)
6779

>  <Marker> (229)
0

>  <Method> (229)
Serial dilution test; Inoculum size: adjusted by optical density; Medium: Mueller-Hinton broth; pH: ---; Incubation-temperature: 35-37 degrees Centigrade; Incubation-time: 16-20h; Solubility enhancer: methanol

>  <Reference> (229)
Brill, G.M., McAlpine, J.B., Rasmussen, R.R.: Antifungal Compounds; US 5,356,933 (1994)

>  <mol_id> (229)
3595

>  <MolWeight> (229)
540.65

>  <Nickname> (229)
Calbistrin B

$$$$

csChmFindW11180110282D

 79 81  0  0  0  0  0  0  0  0999 V2000
   14.4282    9.3885    1.1107 C   0  0  0  0  0  0  0  0  0  0  0  0
   16.2760   10.1392    0.5085 C   0  0  0  0  0  0  0  0  0  0  0  0
   17.5915   10.1072    1.9490 O   0  0  0  0  0  0  0  0  0  0  0  0
   17.9506    8.3141    2.6763 C   0  0  0  0  0  0  0  0  0  0  0  0
   16.1713    7.4690    3.5270 C   0  0  0  0  0  0  0  0  0  0  0  0
   14.7717    7.5054    1.9438 C   0  0  0  0  0  0  0  0  0  0  0  0
   18.7089    7.0466    1.2007 C   0  0  0  0  0  0  0  0  0  0  0  0
   18.5173    5.2045    1.2599 C   0  0  0  0  0  0  0  0  0  0  0  0
   17.5403    4.3139    2.7913 C   0  0  0  0  0  0  0  0  0  0  0  0
   16.4932    5.4551    4.1896 C   0  0  0  0  0  0  0  0  0  0  0  0
   17.6980    2.4752    3.0065 C   0  0  0  0  0  0  0  0  0  0  0  0
   16.7772    1.4712    4.5711 C   0  0  0  0  0  0  0  0  0  0  0  0
   14.8630    2.3324    4.8135 C   0  0  0  0  0  0  0  0  0  0  0  0
   14.8827    4.4220    5.1422 C   0  0  0  0  0  0  0  0  0  0  0  0
   14.0785    6.1446    1.2726 O   0  0  0  0  0  0  0  0  0  0  0  0
   16.1868   12.0833    0.2085 O   0  0  0  0  0  0  0  0  0  0  0  0
   15.4902    8.6615    5.1579 C   0  0  0  0  0  0  0  0  0  0  0  0
   19.5187    8.5912    4.0752 C   0  0  0  0  0  0  0  0  0  0  0  0
   17.9416    1.4954    6.3354 C   0  0  0  0  0  0  0  0  0  0  0  0
   13.1345    5.1211    4.6069 O   0  0  0  0  0  0  0  0  0  0  0  0
   11.7094    4.9548    5.8134 C   0  0  0  0  0  0  0  0  0  0  0  0
   11.8372    4.3334    7.3558 O   0  0  0  0  0  0  0  0  0  0  0  0
    9.8948    5.5889    4.9504 C   0  0  0  0  0  0  0  0  0  0  0  0
    9.6633    7.6842    5.1367 C   0  0  0  0  0  0  0  0  0  0  0  0
    7.7424    8.3901    4.7166 C   0  0  0  0  0  0  0  0  0  0  0  0
    6.9921    8.1312    3.0307 C   0  0  0  0  0  0  0  0  0  0  0  0
    5.1701    8.7676    2.4308 C   0  0  0  0  0  0  0  0  0  0  0  0
    4.4410    8.2744    0.7826 C   0  0  0  0  0  0  0  0  0  0  0  0
    2.6136    8.8798    0.1406 C   0  0  0  0  0  0  0  0  0  0  0  0
    1.7326    8.0490   -1.2904 C   0  0  0  0  0  0  0  0  0  0  0  0
    2.3389    6.4116   -2.3019 C   0  0  0  0  0  0  0  0  0  0  0  0
    1.3110    5.6964   -3.6873 C   0  0  0  0  0  0  0  0  0  0  0  0
    1.9183    4.0174   -4.6814 C   0  0  0  0  0  0  0  0  0  0  0  0
    3.4865    3.1027   -4.2800 O   0  0  0  0  0  0  0  0  0  0  0  0
    0.9604    3.4056   -5.9304 O   0  0  0  0  0  0  0  0  0  0  0  0
    6.8200    9.3685    6.3052 C   0  0  0  0  0  0  0  0  0  0  0  0
   10.9214    8.6095    3.9352 O   0  0  0  0  0  0  0  0  0  0  0  0
    8.2781    4.5365    5.8357 C   0  0  0  0  0  0  0  0  0  0  0  0
    1.7027   10.5251    1.0502 C   0  0  0  0  0  0  0  0  0  0  0  0
   13.4778    9.2865   -0.0912 H   0  0  0  0  0  0  0  0  0  0  0  0
   13.7582   10.2937    2.1510 H   0  0  0  0  0  0  0  0  0  0  0  0
   16.8324    9.4680   -0.7503 H   0  0  0  0  0  0  0  0  0  0  0  0
   19.5217    7.6698    0.0775 H   0  0  0  0  0  0  0  0  0  0  0  0
   19.1751    4.3626    0.1794 H   0  0  0  0  0  0  0  0  0  0  0  0
   17.5610    5.5909    5.2978 H   0  0  0  0  0  0  0  0  0  0  0  0
   18.5245    1.6471    2.0373 H   0  0  0  0  0  0  0  0  0  0  0  0
   16.5795    0.0000    4.1479 H   0  0  0  0  0  0  0  0  0  0  0  0
   14.1048    1.6155    5.9422 H   0  0  0  0  0  0  0  0  0  0  0  0
   14.0748    2.0452    3.5207 H   0  0  0  0  0  0  0  0  0  0  0  0
   15.0496    4.6786    6.6532 H   0  0  0  0  0  0  0  0  0  0  0  0
   17.2622   12.5605    0.7596 H   0  0  0  0  0  0  0  0  0  0  0  0
   14.0672    8.3212    5.5999 H   0  0  0  0  0  0  0  0  0  0  0  0
   15.4887   10.1614    4.8476 H   0  0  0  0  0  0  0  0  0  0  0  0
   16.3689    8.4721    6.3996 H   0  0  0  0  0  0  0  0  0  0  0  0
   19.9904    7.2815    4.7153 H   0  0  0  0  0  0  0  0  0  0  0  0
   19.1266    9.5536    5.2022 H   0  0  0  0  0  0  0  0  0  0  0  0
   20.7505    9.2075    3.3959 H   0  0  0  0  0  0  0  0  0  0  0  0
   17.2425    0.7217    7.4622 H   0  0  0  0  0  0  0  0  0  0  0  0
   18.2009    2.9158    6.8477 H   0  0  0  0  0  0  0  0  0  0  0  0
   19.3073    0.8356    6.0967 H   0  0  0  0  0  0  0  0  0  0  0  0
    9.9211    5.2006    3.4595 H   0  0  0  0  0  0  0  0  0  0  0  0
   10.0587    8.0814    6.5679 H   0  0  0  0  0  0  0  0  0  0  0  0
    7.8204    7.3611    2.0146 H   0  0  0  0  0  0  0  0  0  0  0  0
    4.3539    9.6517    3.3489 H   0  0  0  0  0  0  0  0  0  0  0  0
    5.2616    7.3386   -0.0846 H   0  0  0  0  0  0  0  0  0  0  0  0
    0.3917    8.6330   -1.7096 H   0  0  0  0  0  0  0  0  0  0  0  0
    3.6339    5.7191   -1.9287 H   0  0  0  0  0  0  0  0  0  0  0  0
    0.0000    6.3465   -4.0958 H   0  0  0  0  0  0  0  0  0  0  0  0
    3.5333    2.0686   -5.1290 H   0  0  0  0  0  0  0  0  0  0  0  0
    5.3871    9.8260    6.0393 H   0  0  0  0  0  0  0  0  0  0  0  0
    7.6316   10.6127    6.6904 H   0  0  0  0  0  0  0  0  0  0  0  0
    6.7582    8.4355    7.5224 H   0  0  0  0  0  0  0  0  0  0  0  0
   10.2580    8.9101    2.8594 H   0  0  0  0  0  0  0  0  0  0  0  0
    6.9508    4.8135    5.1181 H   0  0  0  0  0  0  0  0  0  0  0  0
    8.0991    4.9220    7.3106 H   0  0  0  0  0  0  0  0  0  0  0  0
    8.5037    3.0190    5.7662 H   0  0  0  0  0  0  0  0  0  0  0  0
    0.5725   11.1272    0.2067 H   0  0  0  0  0  0  0  0  0  0  0  0
    2.7135   11.6580    1.2719 H   0  0  0  0  0  0  0  0  0  0  0  0
    1.1005   10.1181    2.4019 H   0  0  0  0  0  0  0  0  0  0  0  0
  1  2  1  0  0  0  0
  1  6  1  0  0  0  0
  1 40  1  6  0  0  0
  1 41  1  1  0  0  0
  2  3  1  1  0  0  0
  2 16  1  0  0  0  0
  2 42  1  6  0  0  0
  3  4  1  0  0  0  0
  4  5  1  0  0  0  0
  4  7  1  6  0  0  0
  4 18  1  1  0  0  0
  5  6  1  6  0  0  0
  5 10  1  0  0  0  0
  5 17  1  1  0  0  0
  6 15  2  0  0  0  0
  7  8  2  0  0  0  0
  7 43  1  6  0  0  0
  8  9  1  1  0  0  0
  8 44  1  6  0  0  0
  9 10  1  1  0  0  0
  9 11  2  0  0  0  0
 10 14  1  0  0  0  0
 10 45  1  1  0  0  0
 11 12  1  1  0  0  0
 11 46  1  6  0  0  0
 12 13  1  0  0  0  0
 12 19  1  1  0  0  0
 12 47  1  0  0  0  0
 13 14  1  0  0  0  0
 13 48  1  1  0  0  0
 13 49  1  6  0  0  0
 14 20  1  0  0  0  0
 14 50  1  1  0  0  0
 16 51  1  0  0  0  0
 17 52  1  0  0  0  0
 17 53  1  0  0  0  0
 17 54  1  1  0  0  0
 18 55  1  0  0  0  0
 18 56  1  1  0  0  0
 18 57  1  0  0  0  0
 19 58  1  1  0  0  0
 19 59  1  0  0  0  0
 19 60  1  0  0  0  0
 20 21  1  1  0  0  0
 21 22  2  0  0  0  0
 21 23  1  0  0  0  0
 23 24  1  0  0  0  0
 23 38  1  0  0  0  0
 23 61  1  6  0  0  0
 24 25  1  0  0  0  0
 24 37  1  6  0  0  0
 24 62  1  1  0  0  0
 25 26  2  0  0  0  0
 25 36  1  1  0  0  0
 26 27  1  0  0  0  0
 26 63  1  6  0  0  0
 27 28  2  0  0  0  0
 27 64  1  1  0  0  0
 28 29  1  0  0  0  0
 28 65  1  6  0  0  0
 29 30  2  0  0  0  0
 29 39  1  0  0  0  0
 30 31  1  6  0  0  0
 30 66  1  0  0  0  0
 31 32  2  0  0  0  0
 31 67  1  0  0  0  0
 32 33  1  6  0  0  0
 32 68  1  0  0  0  0
 33 34  1  0  0  0  0
 33 35  2  0  0  0  0
 34 69  1  6  0  0  0
 36 70  1  0  0  0  0
 36 71  1  0  0  0  0
 36 72  1  1  0  0  0
 37 73  1  6  0  0  0
 38 74  1  6  0  0  0
 38 75  1  1  0  0  0
 38 76  1  0  0  0  0
 39 77  1  6  0  0  0
 39 78  1  0  0  0  0
 39 79  1  1  0  0  0
M  END
>  <Formula> (230)
C31H40O8

>  <Name> (230)
(2E,4Z,6E,8E)-10-HYDROXY-5,9,11-TRIMETHYL-DODECA-2,4,6,8-TETRAENEDIOIC ACID, 12-(3-HYDROXY-4A,8,10B-TRIMETHYL-1-OXO-2,3,4A,8,9,10,10A,10B-OCTAHYDRO-1H-BENZO[F]CHROMEN-10-YL) ESTER

>  <Compound classification> (230)
Flavonoid

>  <Microorganism> (230)
Candida albicans

>  <Microorganism type> (230)
579A

>  <Microorganism classification> (230)
yeast

>  <MIC> (230)
3.12

>  <Method abbreviation> (230)
SDT

>  <Ref-Nr> (230)
6779

>  <Marker> (230)
0

>  <Method> (230)
Serial dilution test; Inoculum size: adjusted by optical density; Medium: Mueller-Hinton broth; pH: ---; Incubation-temperature: 35-37 degrees Centigrade; Incubation-time: 16-20h; Solubility enhancer: methanol

>  <Reference> (230)
Brill, G.M., McAlpine, J.B., Rasmussen, R.R.: Antifungal Compounds; US 5,356,933 (1994)

>  <mol_id> (230)
3595

>  <MolWeight> (230)
540.65

>  <Nickname> (230)
Calbistrin B

$$$$

csChmFindW11180110282D

166170  0  0  0  0  0  0  0  0999 V2000
    6.8008   13.9824   -1.9520 C   0  0  0  0  0  0  0  0  0  0  0  0
    6.2318   12.4187   -0.8025 N   0  0  0  0  0  0  0  0  0  0  0  0
    4.9558   11.1773   -1.3875 C   0  0  0  0  0  0  0  0  0  0  0  0
    4.6898    9.2443   -0.3894 C   0  0  0  0  0  0  0  0  0  0  0  0
    6.1873    7.7711   -0.1404 N   0  0  0  0  0  0  0  0  0  0  0  0
    6.8315    6.7011   -1.6015 C   0  0  0  0  0  0  0  0  0  0  0  0
    8.9408    6.0421   -1.7928 C   0  0  0  0  0  0  0  0  0  0  0  0
   10.4959    7.2257   -1.5323 O   0  0  0  0  0  0  0  0  0  0  0  0
   12.3102    6.8304   -1.2518 C   0  0  0  0  0  0  0  0  0  0  0  0
   13.9282    8.6080   -1.7188 C   0  0  0  0  0  0  0  0  0  0  0  0
   15.4492   10.0613    0.0104 N   0  0  0  0  0  0  0  0  0  0  0  0
   14.9764   11.7275    1.2801 C   0  0  0  0  0  0  0  0  0  0  0  0
   13.2026   12.0494    2.5485 C   0  0  0  0  0  0  0  0  0  0  0  0
   11.5387   11.0401    2.1989 N   0  0  0  0  0  0  0  0  0  0  0  0
    9.9767   11.5369    1.3596 C   0  0  0  0  0  0  0  0  0  0  0  0
    9.0577    9.9488    0.4218 C   0  0  0  0  0  0  0  0  0  0  0  0
    9.1193    8.5390    1.9108 N   0  0  0  0  0  0  0  0  0  0  0  0
    9.8624    6.8371    1.9348 C   0  0  0  0  0  0  0  0  0  0  0  0
   11.5953    6.4798    2.9738 C   0  0  0  0  0  0  0  0  0  0  0  0
   12.6483    7.9774    3.6476 N   0  0  0  0  0  0  0  0  0  0  0  0
   13.9412    8.7922    2.6155 C   0  0  0  0  0  0  0  0  0  0  0  0
   13.4693    9.1167    0.5570 C   0  0  0  0  0  0  0  0  0  0  0  0
   13.5168   11.1540   -0.9688 N   0  0  0  0  0  0  0  0  0  0  0  0
   12.5156   12.8133   -1.0048 C   0  0  0  0  0  0  0  0  0  0  0  0
   12.0414   13.8577   -2.7386 C   0  0  0  0  0  0  0  0  0  0  0  0
   10.0306   13.9414   -2.9747 N   0  0  0  0  0  0  0  0  0  0  0  0
    8.7935   14.6087   -1.7396 C   0  0  0  0  0  0  0  0  0  0  0  0
    5.5322   15.5632   -1.6021 C   0  0  0  0  0  0  0  0  0  0  0  0
    5.9379   17.1574   -2.7749 C   0  0  0  0  0  0  0  0  0  0  0  0
    5.8215   17.0262   -4.6358 C   0  0  0  0  0  0  0  0  0  0  0  0
    6.2060   18.4848   -5.7300 C   0  0  0  0  0  0  0  0  0  0  0  0
    6.6964   20.1140   -4.9723 C   0  0  0  0  0  0  0  0  0  0  0  0
    6.7963   20.2715   -3.1190 C   0  0  0  0  0  0  0  0  0  0  0  0
    6.4265   18.8018   -2.0336 C   0  0  0  0  0  0  0  0  0  0  0  0
    9.1848   15.6205   -0.5469 O   0  0  0  0  0  0  0  0  0  0  0  0
   12.9923   15.6816   -2.9104 C   0  0  0  0  0  0  0  0  0  0  0  0
   12.6065   17.0730   -1.5007 C   0  0  0  0  0  0  0  0  0  0  0  0
   13.5546   17.0972    0.1107 C   0  0  0  0  0  0  0  0  0  0  0  0
   13.1990   18.3739    1.4205 C   0  0  0  0  0  0  0  0  0  0  0  0
   11.9096   19.6831    1.1174 C   0  0  0  0  0  0  0  0  0  0  0  0
   10.9987   19.7158   -0.5070 C   0  0  0  0  0  0  0  0  0  0  0  0
   11.3510   18.4248   -1.8046 C   0  0  0  0  0  0  0  0  0  0  0  0
   11.9024   13.6922    0.1775 O   0  0  0  0  0  0  0  0  0  0  0  0
   15.2303   10.9998   -2.3974 C   0  0  0  0  0  0  0  0  0  0  0  0
   15.4910    7.6541   -0.2205 C   0  0  0  0  0  0  0  0  0  0  0  0
   15.3307    9.1059    3.3704 O   0  0  0  0  0  0  0  0  0  0  0  0
   11.4247    5.0202    4.4378 C   0  0  0  0  0  0  0  0  0  0  0  0
   10.1845    5.5967    5.9719 C   0  0  0  0  0  0  0  0  0  0  0  0
   10.0524    4.2525    7.5122 C   0  0  0  0  0  0  0  0  0  0  0  0
   13.2887    4.4729    5.1198 C   0  0  0  0  0  0  0  0  0  0  0  0
    9.0446    5.5301    1.4796 O   0  0  0  0  0  0  0  0  0  0  0  0
    8.5111    9.2662    3.6480 C   0  0  0  0  0  0  0  0  0  0  0  0
    8.9287   10.0255   -1.8837 C   0  0  0  0  0  0  0  0  0  0  0  0
   10.3249   10.1842   -3.4271 C   0  0  0  0  0  0  0  0  0  0  0  0
    7.4300    9.6180   -3.3092 C   0  0  0  0  0  0  0  0  0  0  0  0
    9.2718   12.9749    1.5522 O   0  0  0  0  0  0  0  0  0  0  0  0
   13.5577   12.1509    4.6001 C   0  0  0  0  0  0  0  0  0  0  0  0
   12.1234   13.1637    5.6956 C   0  0  0  0  0  0  0  0  0  0  0  0
   12.0431   15.1780    5.2939 C   0  0  0  0  0  0  0  0  0  0  0  0
   12.4615   12.8903    7.7071 C   0  0  0  0  0  0  0  0  0  0  0  0
   16.1023   12.8549    1.5809 O   0  0  0  0  0  0  0  0  0  0  0  0
   17.5296    9.9336    0.4456 C   0  0  0  0  0  0  0  0  0  0  0  0
   14.2674    7.4954   -3.6937 C   0  0  0  0  0  0  0  0  0  0  0  0
   15.3183    5.7192   -3.9008 C   0  0  0  0  0  0  0  0  0  0  0  0
   14.5109    8.6041   -5.2488 O   0  0  0  0  0  0  0  0  0  0  0  0
   12.7467    5.3045   -0.9509 O   0  0  0  0  0  0  0  0  0  0  0  0
    9.2946    4.0083   -1.6957 C   0  0  0  0  0  0  0  0  0  0  0  0
    5.8179    6.2116   -2.7668 O   0  0  0  0  0  0  0  0  0  0  0  0
    5.6140    6.7003    1.4214 C   0  0  0  0  0  0  0  0  0  0  0  0
    2.8372    8.5175   -1.0634 C   0  0  0  0  0  0  0  0  0  0  0  0
    1.2914    9.7487   -0.4566 C   0  0  0  0  0  0  0  0  0  0  0  0
    2.2251    6.6049   -0.6033 C   0  0  0  0  0  0  0  0  0  0  0  0
    4.0491   11.5365   -2.6788 O   0  0  0  0  0  0  0  0  0  0  0  0
    7.6611    2.7863   -1.4416 C   0  0  0  0  0  0  0  0  0  0  0  0
    8.3942    0.8944   -1.7611 C   0  0  0  0  0  0  0  0  0  0  0  0
   10.0117    1.1328   -3.0065 C   0  0  0  0  0  0  0  0  0  0  0  0
   10.1246    3.1488   -3.3757 C   0  0  0  0  0  0  0  0  0  0  0  0
   16.4846    9.0163   -2.1239 C   0  0  0  0  0  0  0  0  0  0  0  0
    6.6747   13.5968   -3.3841 H   0  0  0  0  0  0  0  0  0  0  0  0
    6.8012   12.3023    0.4147 H   0  0  0  0  0  0  0  0  0  0  0  0
    4.4514    9.7944    0.9821 H   0  0  0  0  0  0  0  0  0  0  0  0
    8.8808    6.1108   -3.2929 H   0  0  0  0  0  0  0  0  0  0  0  0
   12.8683    9.2874   -2.4719 H   0  0  0  0  0  0  0  0  0  0  0  0
   13.0222   13.5211    2.5001 H   0  0  0  0  0  0  0  0  0  0  0  0
   11.5504    9.7388    2.5001 H   0  0  0  0  0  0  0  0  0  0  0  0
    7.6387   10.3115    0.6447 H   0  0  0  0  0  0  0  0  0  0  0  0
   12.4677    5.7920    1.9847 H   0  0  0  0  0  0  0  0  0  0  0  0
   12.9170    7.9900    4.9695 H   0  0  0  0  0  0  0  0  0  0  0  0
   12.0778    8.6640    0.5949 H   0  0  0  0  0  0  0  0  0  0  0  0
   12.5803   13.1450   -3.9308 H   0  0  0  0  0  0  0  0  0  0  0  0
    9.5103   13.2993   -4.0395 H   0  0  0  0  0  0  0  0  0  0  0  0
    5.5948   15.9307   -0.1622 H   0  0  0  0  0  0  0  0  0  0  0  0
    4.1245   15.1558   -1.8660 H   0  0  0  0  0  0  0  0  0  0  0  0
    5.4185   15.7573   -5.2604 H   0  0  0  0  0  0  0  0  0  0  0  0
    6.1140   18.3530   -7.1924 H   0  0  0  0  0  0  0  0  0  0  0  0
    6.9950   21.2702   -5.8309 H   0  0  0  0  0  0  0  0  0  0  0  0
    7.1741   21.5578   -2.5137 H   0  0  0  0  0  0  0  0  0  0  0  0
    6.5252   18.9515   -0.5737 H   0  0  0  0  0  0  0  0  0  0  0  0
   12.6769   16.2627   -4.2457 H   0  0  0  0  0  0  0  0  0  0  0  0
   14.4655   15.4512   -2.9193 H   0  0  0  0  0  0  0  0  0  0  0  0
   14.5937   16.0882    0.3661 H   0  0  0  0  0  0  0  0  0  0  0  0
   13.9405   18.3524    2.6908 H   0  0  0  0  0  0  0  0  0  0  0  0
   11.6257   20.6957    2.1456 H   0  0  0  0  0  0  0  0  0  0  0  0
    9.9966   20.7615   -0.7595 H   0  0  0  0  0  0  0  0  0  0  0  0
   10.6122   18.4683   -3.0762 H   0  0  0  0  0  0  0  0  0  0  0  0
   16.1318   12.1743   -2.1983 H   0  0  0  0  0  0  0  0  0  0  0  0
   14.7933   11.2365   -3.7911 H   0  0  0  0  0  0  0  0  0  0  0  0
   15.3363    6.2443   -0.6307 H   0  0  0  0  0  0  0  0  0  0  0  0
   16.3169    7.2178    0.9372 H   0  0  0  0  0  0  0  0  0  0  0  0
   10.8280    3.7944    3.8213 H   0  0  0  0  0  0  0  0  0  0  0  0
    8.8113    5.7699    5.4249 H   0  0  0  0  0  0  0  0  0  0  0  0
   10.6290    6.9112    6.5119 H   0  0  0  0  0  0  0  0  0  0  0  0
    9.0072    4.6666    8.4867 H   0  0  0  0  0  0  0  0  0  0  0  0
   11.3264    4.1511    8.2697 H   0  0  0  0  0  0  0  0  0  0  0  0
    9.6928    2.8984    7.0140 H   0  0  0  0  0  0  0  0  0  0  0  0
   13.2331    3.2496    5.9607 H   0  0  0  0  0  0  0  0  0  0  0  0
   13.9118    5.5514    5.9298 H   0  0  0  0  0  0  0  0  0  0  0  0
   14.2121    4.1583    3.9977 H   0  0  0  0  0  0  0  0  0  0  0  0
    7.7708    8.2591    4.4387 H   0  0  0  0  0  0  0  0  0  0  0  0
    7.5659   10.4042    3.5301 H   0  0  0  0  0  0  0  0  0  0  0  0
    9.6506    9.6683    4.5080 H   0  0  0  0  0  0  0  0  0  0  0  0
    8.7933   11.4964   -1.7699 H   0  0  0  0  0  0  0  0  0  0  0  0
   11.4729   10.9857   -3.1089 H   0  0  0  0  0  0  0  0  0  0  0  0
    9.8939   10.9857   -4.6031 H   0  0  0  0  0  0  0  0  0  0  0  0
   10.7142    8.9573   -4.1583 H   0  0  0  0  0  0  0  0  0  0  0  0
    7.8106    8.5880   -4.3089 H   0  0  0  0  0  0  0  0  0  0  0  0
    7.1242   10.7866   -4.1779 H   0  0  0  0  0  0  0  0  0  0  0  0
    6.0906    9.1715   -2.9902 H   0  0  0  0  0  0  0  0  0  0  0  0
   14.8859   12.7691    4.8720 H   0  0  0  0  0  0  0  0  0  0  0  0
   13.6060   10.8012    5.2101 H   0  0  0  0  0  0  0  0  0  0  0  0
   10.7840   12.5789    5.3876 H   0  0  0  0  0  0  0  0  0  0  0  0
   11.1241   15.8749    6.2319 H   0  0  0  0  0  0  0  0  0  0  0  0
   11.5267   15.4698    3.9326 H   0  0  0  0  0  0  0  0  0  0  0  0
   13.3844   15.8039    5.4279 H   0  0  0  0  0  0  0  0  0  0  0  0
   11.4197   13.5604    8.5294 H   0  0  0  0  0  0  0  0  0  0  0  0
   13.7821   13.4445    8.1064 H   0  0  0  0  0  0  0  0  0  0  0  0
   12.4403   11.4499    8.0759 H   0  0  0  0  0  0  0  0  0  0  0  0
   18.3530    8.7034    0.3030 H   0  0  0  0  0  0  0  0  0  0  0  0
   17.7603   10.1305    1.8986 H   0  0  0  0  0  0  0  0  0  0  0  0
   18.2786   11.0971   -0.1124 H   0  0  0  0  0  0  0  0  0  0  0  0
   12.9258    6.9518   -4.1169 H   0  0  0  0  0  0  0  0  0  0  0  0
   15.4842    5.3866   -5.3419 H   0  0  0  0  0  0  0  0  0  0  0  0
   14.6187    4.5429   -3.3293 H   0  0  0  0  0  0  0  0  0  0  0  0
   16.6845    5.6640   -3.3310 H   0  0  0  0  0  0  0  0  0  0  0  0
   15.6119    9.1990   -5.2096 H   0  0  0  0  0  0  0  0  0  0  0  0
   10.2052    3.6783   -0.5664 H   0  0  0  0  0  0  0  0  0  0  0  0
    5.4034    5.2738    1.0716 H   0  0  0  0  0  0  0  0  0  0  0  0
    4.3795    7.1828    2.0780 H   0  0  0  0  0  0  0  0  0  0  0  0
    6.5463    6.7246    2.5509 H   0  0  0  0  0  0  0  0  0  0  0  0
    2.8944    8.5251   -2.5576 H   0  0  0  0  0  0  0  0  0  0  0  0
    1.1216    9.6906    1.0193 H   0  0  0  0  0  0  0  0  0  0  0  0
    0.0000    9.3423   -1.0713 H   0  0  0  0  0  0  0  0  0  0  0  0
    1.4790   11.1765   -0.8073 H   0  0  0  0  0  0  0  0  0  0  0  0
    1.9036    6.4343    0.8352 H   0  0  0  0  0  0  0  0  0  0  0  0
    3.1878    5.5570   -1.0126 H   0  0  0  0  0  0  0  0  0  0  0  0
    0.9717    6.2704   -1.3317 H   0  0  0  0  0  0  0  0  0  0  0  0
    6.6314    3.0703   -2.4766 H   0  0  0  0  0  0  0  0  0  0  0  0
    7.0332    2.9197   -0.1025 H   0  0  0  0  0  0  0  0  0  0  0  0
    7.3587    0.0000   -2.3450 H   0  0  0  0  0  0  0  0  0  0  0  0
    8.8320    0.2974   -0.4680 H   0  0  0  0  0  0  0  0  0  0  0  0
    9.8787    0.3504   -4.2641 H   0  0  0  0  0  0  0  0  0  0  0  0
   11.2534    0.6807   -2.3176 H   0  0  0  0  0  0  0  0  0  0  0  0
   11.5122    3.5971   -3.6512 H   0  0  0  0  0  0  0  0  0  0  0  0
    9.3017    3.4601   -4.5781 H   0  0  0  0  0  0  0  0  0  0  0  0
   17.9312    9.3289   -2.2188 H   0  0  0  0  0  0  0  0  0  0  0  0
   16.8253    8.3139   -3.3616 H   0  0  0  0  0  0  0  0  0  0  0  0
  1  2  1  1  0  0  0
  1 27  1  0  0  0  0
  1 28  1  0  0  0  0
  1 79  1  6  0  0  0
  2  3  1  0  0  0  0
  2 80  1  1  0  0  0
  3  4  1  1  0  0  0
  3 73  2  0  0  0  0
  4  5  1  0  0  0  0
  4 70  1  0  0  0  0
  4 81  1  1  0  0  0
  5  6  1  6  0  0  0
  5 69  1  1  0  0  0
  6  7  1  0  0  0  0
  6 68  2  0  0  0  0
  7  8  1  0  0  0  0
  7 67  1  0  0  0  0
  7 82  1  6  0  0  0
  8  9  1  0  0  0  0
  9 10  1  0  0  0  0
  9 66  2  0  0  0  0
 10 11  1  1  0  0  0
 10 63  1  6  0  0  0
 10 83  1  6  0  0  0
 11 12  1  1  0  0  0
 11 62  1  0  0  0  0
 12 13  1  1  0  0  0
 12 61  2  0  0  0  0
 13 14  1  0  0  0  0
 13 57  1  1  0  0  0
 13 84  1  0  0  0  0
 14 15  1  6  0  0  0
 14 85  1  0  0  0  0
 15 16  1  6  0  0  0
 15 56  2  0  0  0  0
 16 17  1  6  0  0  0
 16 53  1  6  0  0  0
 16 86  1  0  0  0  0
 17 18  1  0  0  0  0
 17 52  1  1  0  0  0
 18 19  1  1  0  0  0
 18 51  2  0  0  0  0
 19 20  1  0  0  0  0
 19 47  1  1  0  0  0
 19 87  1  6  0  0  0
 20 21  1  6  0  0  0
 20 88  1  1  0  0  0
 21 22  1  6  0  0  0
 21 46  2  0  0  0  0
 22 23  1  6  0  0  0
 22 45  1  0  0  0  0
 22 89  1  0  0  0  0
 23 24  1  0  0  0  0
 23 44  1  6  0  0  0
 24 25  1  6  0  0  0
 24 43  2  0  0  0  0
 25 26  1  0  0  0  0
 25 36  1  0  0  0  0
 25 90  1  6  0  0  0
 26 27  1  1  0  0  0
 26 91  1  6  0  0  0
 27 35  2  0  0  0  0
 28 29  1  6  0  0  0
 28 92  1  1  0  0  0
 28 93  1  0  0  0  0
 29 30  2  0  0  0  0
 29 34  1  0  0  0  0
 30 31  1  6  0  0  0
 30 94  1  0  0  0  0
 31 32  2  0  0  0  0
 31 95  1  6  0  0  0
 32 33  1  1  0  0  0
 32 96  1  6  0  0  0
 33 34  2  0  0  0  0
 33 97  1  0  0  0  0
 34 98  1  1  0  0  0
 36 37  1  1  0  0  0
 36 99  1  6  0  0  0
 36100  1  0  0  0  0
 37 38  2  0  0  0  0
 37 42  1  0  0  0  0
 38 39  1  1  0  0  0
 38101  1  0  0  0  0
 39 40  2  0  0  0  0
 39102  1  1  0  0  0
 40 41  1  6  0  0  0
 40103  1  1  0  0  0
 41 42  2  0  0  0  0
 41104  1  0  0  0  0
 42105  1  6  0  0  0
 44 78  1  0  0  0  0
 44106  1  0  0  0  0
 44107  1  6  0  0  0
 45 78  1  6  0  0  0
 45108  1  0  0  0  0
 45109  1  1  0  0  0
 47 48  1  1  0  0  0
 47 50  1  0  0  0  0
 47110  1  0  0  0  0
 48 49  1  1  0  0  0
 48111  1  0  0  0  0
 48112  1  0  0  0  0
 49113  1  1  0  0  0
 49114  1  1  0  0  0
 49115  1  0  0  0  0
 50116  1  1  0  0  0
 50117  1  1  0  0  0
 50118  1  6  0  0  0
 52119  1  1  0  0  0
 52120  1  0  0  0  0
 52121  1  1  0  0  0
 53 54  1  6  0  0  0
 53 55  1  6  0  0  0
 53122  1  0  0  0  0
 54123  1  0  0  0  0
 54124  1  6  0  0  0
 54125  1  6  0  0  0
 55126  1  6  0  0  0
 55127  1  6  0  0  0
 55128  1  0  0  0  0
 57 58  1  1  0  0  0
 57129  1  0  0  0  0
 57130  1  0  0  0  0
 58 59  1  0  0  0  0
 58 60  1  1  0  0  0
 58131  1  0  0  0  0
 59132  1  1  0  0  0
 59133  1  6  0  0  0
 59134  1  0  0  0  0
 60135  1  1  0  0  0
 60136  1  0  0  0  0
 60137  1  0  0  0  0
 62138  1  0  0  0  0
 62139  1  1  0  0  0
 62140  1  0  0  0  0
 63 64  1  0  0  0  0
 63 65  1  6  0  0  0
 63141  1  0  0  0  0
 64142  1  6  0  0  0
 64143  1  0  0  0  0
 64144  1  0  0  0  0
 65145  1  0  0  0  0
 67 74  1  0  0  0  0
 67 77  1  6  0  0  0
 67146  1  1  0  0  0
 69147  1  0  0  0  0
 69148  1  0  0  0  0
 69149  1  1  0  0  0
 70 71  1  0  0  0  0
 70 72  1  0  0  0  0
 70150  1  6  0  0  0
 71151  1  1  0  0  0
 71152  1  0  0  0  0
 71153  1  0  0  0  0
 72154  1  1  0  0  0
 72155  1  0  0  0  0
 72156  1  6  0  0  0
 74 75  1  0  0  0  0
 74157  1  6  0  0  0
 74158  1  1  0  0  0
 75 76  1  6  0  0  0
 75159  1  0  0  0  0
 75160  1  1  0  0  0
 76 77  1  0  0  0  0
 76161  1  6  0  0  0
 76162  1  1  0  0  0
 77163  1  0  0  0  0
 77164  1  6  0  0  0
 78165  1  0  0  0  0
 78166  1  6  0  0  0
M  END
>  <Formula> (231)
C59H88N8O11

>  <Name> (231)
5,8-DIBENZYL-26-SEC-BUTYL-14-CYCLOPENTYL-17-(1-HYDROXY-ETHYL)-20-ISOBUTYL-11,23-DIISOPROPYL-12,18,24-TRIMETHYL-OCTADECAHYDRO-15-OXA-3A,6,9,12,18,21,24,27-OCTAAZA-CYCLOPENTACYCLOHEPTACOSENE-4,7,10,13,16,19,22,25,28-NONAONE

>  <Compound classification> (231)
AB-Pept

>  <Microorganism> (231)
Candida albicans

>  <Microorganism type> (231)
C45

>  <Publication strain name> (231)
Candida stellatoidea

>  <Microorganism classification> (231)
yeast

>  <MIC> (231)
0.5

>  <Annotation> (231)
mean MIC of 14 Candida strains

>  <Method abbreviation> (231)
SDT

>  <Ref-Nr> (231)
6789

>  <Marker> (231)
0

>  <Method> (231)
Serial dilution test; Inoculum size: 3x10E3 CFU/ml; Medium: Yeast nitrogen broth; pH: 5.4; Incubation-temperature: 37 degrees Centigrade; Incubation-time: 48h; Solubility enhancer: various vehicles

>  <Reference> (231)
Cooper, A.B., Saksena, A.K., Rane, D.F., Jao, E., Ginjavallabhan, V.M., Ganguly, A., Desai, J.J., Wang, J.: Anti-Fungal Agents; US 5,739,104 (1998)

>  <mol_id> (231)
3561

>  <MolWeight> (231)
1085.39

>  <Nickname> (231)
Cyclodepsipeptide VI

$$$$

csChmFindW11180110282D

166170  0  0  0  0  0  0  0  0999 V2000
    6.8008   13.9824   -1.9520 C   0  0  0  0  0  0  0  0  0  0  0  0
    6.2318   12.4187   -0.8025 N   0  0  0  0  0  0  0  0  0  0  0  0
    4.9558   11.1773   -1.3875 C   0  0  0  0  0  0  0  0  0  0  0  0
    4.6898    9.2443   -0.3894 C   0  0  0  0  0  0  0  0  0  0  0  0
    6.1873    7.7711   -0.1404 N   0  0  0  0  0  0  0  0  0  0  0  0
    6.8315    6.7011   -1.6015 C   0  0  0  0  0  0  0  0  0  0  0  0
    8.9408    6.0421   -1.7928 C   0  0  0  0  0  0  0  0  0  0  0  0
   10.4959    7.2257   -1.5323 O   0  0  0  0  0  0  0  0  0  0  0  0
   12.3102    6.8304   -1.2518 C   0  0  0  0  0  0  0  0  0  0  0  0
   13.9282    8.6080   -1.7188 C   0  0  0  0  0  0  0  0  0  0  0  0
   15.4492   10.0613    0.0104 N   0  0  0  0  0  0  0  0  0  0  0  0
   14.9764   11.7275    1.2801 C   0  0  0  0  0  0  0  0  0  0  0  0
   13.2026   12.0494    2.5485 C   0  0  0  0  0  0  0  0  0  0  0  0
   11.5387   11.0401    2.1989 N   0  0  0  0  0  0  0  0  0  0  0  0
    9.9767   11.5369    1.3596 C   0  0  0  0  0  0  0  0  0  0  0  0
    9.0577    9.9488    0.4218 C   0  0  0  0  0  0  0  0  0  0  0  0
    9.1193    8.5390    1.9108 N   0  0  0  0  0  0  0  0  0  0  0  0
    9.8624    6.8371    1.9348 C   0  0  0  0  0  0  0  0  0  0  0  0
   11.5953    6.4798    2.9738 C   0  0  0  0  0  0  0  0  0  0  0  0
   12.6483    7.9774    3.6476 N   0  0  0  0  0  0  0  0  0  0  0  0
   13.9412    8.7922    2.6155 C   0  0  0  0  0  0  0  0  0  0  0  0
   13.4693    9.1167    0.5570 C   0  0  0  0  0  0  0  0  0  0  0  0
   13.5168   11.1540   -0.9688 N   0  0  0  0  0  0  0  0  0  0  0  0
   12.5156   12.8133   -1.0048 C   0  0  0  0  0  0  0  0  0  0  0  0
   12.0414   13.8577   -2.7386 C   0  0  0  0  0  0  0  0  0  0  0  0
   10.0306   13.9414   -2.9747 N   0  0  0  0  0  0  0  0  0  0  0  0
    8.7935   14.6087   -1.7396 C   0  0  0  0  0  0  0  0  0  0  0  0
    5.5322   15.5632   -1.6021 C   0  0  0  0  0  0  0  0  0  0  0  0
    5.9379   17.1574   -2.7749 C   0  0  0  0  0  0  0  0  0  0  0  0
    5.8215   17.0262   -4.6358 C   0  0  0  0  0  0  0  0  0  0  0  0
    6.2060   18.4848   -5.7300 C   0  0  0  0  0  0  0  0  0  0  0  0
    6.6964   20.1140   -4.9723 C   0  0  0  0  0  0  0  0  0  0  0  0
    6.7963   20.2715   -3.1190 C   0  0  0  0  0  0  0  0  0  0  0  0
    6.4265   18.8018   -2.0336 C   0  0  0  0  0  0  0  0  0  0  0  0
    9.1848   15.6205   -0.5469 O   0  0  0  0  0  0  0  0  0  0  0  0
   12.9923   15.6816   -2.9104 C   0  0  0  0  0  0  0  0  0  0  0  0
   12.6065   17.0730   -1.5007 C   0  0  0  0  0  0  0  0  0  0  0  0
   13.5546   17.0972    0.1107 C   0  0  0  0  0  0  0  0  0  0  0  0
   13.1990   18.3739    1.4205 C   0  0  0  0  0  0  0  0  0  0  0  0
   11.9096   19.6831    1.1174 C   0  0  0  0  0  0  0  0  0  0  0  0
   10.9987   19.7158   -0.5070 C   0  0  0  0  0  0  0  0  0  0  0  0
   11.3510   18.4248   -1.8046 C   0  0  0  0  0  0  0  0  0  0  0  0
   11.9024   13.6922    0.1775 O   0  0  0  0  0  0  0  0  0  0  0  0
   15.2303   10.9998   -2.3974 C   0  0  0  0  0  0  0  0  0  0  0  0
   15.4910    7.6541   -0.2205 C   0  0  0  0  0  0  0  0  0  0  0  0
   15.3307    9.1059    3.3704 O   0  0  0  0  0  0  0  0  0  0  0  0
   11.4247    5.0202    4.4378 C   0  0  0  0  0  0  0  0  0  0  0  0
   10.1845    5.5967    5.9719 C   0  0  0  0  0  0  0  0  0  0  0  0
   10.0524    4.2525    7.5122 C   0  0  0  0  0  0  0  0  0  0  0  0
   13.2887    4.4729    5.1198 C   0  0  0  0  0  0  0  0  0  0  0  0
    9.0446    5.5301    1.4796 O   0  0  0  0  0  0  0  0  0  0  0  0
    8.5111    9.2662    3.6480 C   0  0  0  0  0  0  0  0  0  0  0  0
    8.9287   10.0255   -1.8837 C   0  0  0  0  0  0  0  0  0  0  0  0
   10.3249   10.1842   -3.4271 C   0  0  0  0  0  0  0  0  0  0  0  0
    7.4300    9.6180   -3.3092 C   0  0  0  0  0  0  0  0  0  0  0  0
    9.2718   12.9749    1.5522 O   0  0  0  0  0  0  0  0  0  0  0  0
   13.5577   12.1509    4.6001 C   0  0  0  0  0  0  0  0  0  0  0  0
   12.1234   13.1637    5.6956 C   0  0  0  0  0  0  0  0  0  0  0  0
   12.0431   15.1780    5.2939 C   0  0  0  0  0  0  0  0  0  0  0  0
   12.4615   12.8903    7.7071 C   0  0  0  0  0  0  0  0  0  0  0  0
   16.1023   12.8549    1.5809 O   0  0  0  0  0  0  0  0  0  0  0  0
   17.5296    9.9336    0.4456 C   0  0  0  0  0  0  0  0  0  0  0  0
   14.2674    7.4954   -3.6937 C   0  0  0  0  0  0  0  0  0  0  0  0
   15.3183    5.7192   -3.9008 C   0  0  0  0  0  0  0  0  0  0  0  0
   14.5109    8.6041   -5.2488 O   0  0  0  0  0  0  0  0  0  0  0  0
   12.7467    5.3045   -0.9509 O   0  0  0  0  0  0  0  0  0  0  0  0
    9.2946    4.0083   -1.6957 C   0  0  0  0  0  0  0  0  0  0  0  0
    5.8179    6.2116   -2.7668 O   0  0  0  0  0  0  0  0  0  0  0  0
    5.6140    6.7003    1.4214 C   0  0  0  0  0  0  0  0  0  0  0  0
    2.8372    8.5175   -1.0634 C   0  0  0  0  0  0  0  0  0  0  0  0
    1.2914    9.7487   -0.4566 C   0  0  0  0  0  0  0  0  0  0  0  0
    2.2251    6.6049   -0.6033 C   0  0  0  0  0  0  0  0  0  0  0  0
    4.0491   11.5365   -2.6788 O   0  0  0  0  0  0  0  0  0  0  0  0
    7.6611    2.7863   -1.4416 C   0  0  0  0  0  0  0  0  0  0  0  0
    8.3942    0.8944   -1.7611 C   0  0  0  0  0  0  0  0  0  0  0  0
   10.0117    1.1328   -3.0065 C   0  0  0  0  0  0  0  0  0  0  0  0
   10.1246    3.1488   -3.3757 C   0  0  0  0  0  0  0  0  0  0  0  0
   16.4846    9.0163   -2.1239 C   0  0  0  0  0  0  0  0  0  0  0  0
    6.6747   13.5968   -3.3841 H   0  0  0  0  0  0  0  0  0  0  0  0
    6.8012   12.3023    0.4147 H   0  0  0  0  0  0  0  0  0  0  0  0
    4.4514    9.7944    0.9821 H   0  0  0  0  0  0  0  0  0  0  0  0
    8.8808    6.1108   -3.2929 H   0  0  0  0  0  0  0  0  0  0  0  0
   12.8683    9.2874   -2.4719 H   0  0  0  0  0  0  0  0  0  0  0  0
   13.0222   13.5211    2.5001 H   0  0  0  0  0  0  0  0  0  0  0  0
   11.5504    9.7388    2.5001 H   0  0  0  0  0  0  0  0  0  0  0  0
    7.6387   10.3115    0.6447 H   0  0  0  0  0  0  0  0  0  0  0  0
   12.4677    5.7920    1.9847 H   0  0  0  0  0  0  0  0  0  0  0  0
   12.9170    7.9900    4.9695 H   0  0  0  0  0  0  0  0  0  0  0  0
   12.0778    8.6640    0.5949 H   0  0  0  0  0  0  0  0  0  0  0  0
   12.5803   13.1450   -3.9308 H   0  0  0  0  0  0  0  0  0  0  0  0
    9.5103   13.2993   -4.0395 H   0  0  0  0  0  0  0  0  0  0  0  0
    5.5948   15.9307   -0.1622 H   0  0  0  0  0  0  0  0  0  0  0  0
    4.1245   15.1558   -1.8660 H   0  0  0  0  0  0  0  0  0  0  0  0
    5.4185   15.7573   -5.2604 H   0  0  0  0  0  0  0  0  0  0  0  0
    6.1140   18.3530   -7.1924 H   0  0  0  0  0  0  0  0  0  0  0  0
    6.9950   21.2702   -5.8309 H   0  0  0  0  0  0  0  0  0  0  0  0
    7.1741   21.5578   -2.5137 H   0  0  0  0  0  0  0  0  0  0  0  0
    6.5252   18.9515   -0.5737 H   0  0  0  0  0  0  0  0  0  0  0  0
   12.6769   16.2627   -4.2457 H   0  0  0  0  0  0  0  0  0  0  0  0
   14.4655   15.4512   -2.9193 H   0  0  0  0  0  0  0  0  0  0  0  0
   14.5937   16.0882    0.3661 H   0  0  0  0  0  0  0  0  0  0  0  0
   13.9405   18.3524    2.6908 H   0  0  0  0  0  0  0  0  0  0  0  0
   11.6257   20.6957    2.1456 H   0  0  0  0  0  0  0  0  0  0  0  0
    9.9966   20.7615   -0.7595 H   0  0  0  0  0  0  0  0  0  0  0  0
   10.6122   18.4683   -3.0762 H   0  0  0  0  0  0  0  0  0  0  0  0
   16.1318   12.1743   -2.1983 H   0  0  0  0  0  0  0  0  0  0  0  0
   14.7933   11.2365   -3.7911 H   0  0  0  0  0  0  0  0  0  0  0  0
   15.3363    6.2443   -0.6307 H   0  0  0  0  0  0  0  0  0  0  0  0
   16.3169    7.2178    0.9372 H   0  0  0  0  0  0  0  0  0  0  0  0
   10.8280    3.7944    3.8213 H   0  0  0  0  0  0  0  0  0  0  0  0
    8.8113    5.7699    5.4249 H   0  0  0  0  0  0  0  0  0  0  0  0
   10.6290    6.9112    6.5119 H   0  0  0  0  0  0  0  0  0  0  0  0
    9.0072    4.6666    8.4867 H   0  0  0  0  0  0  0  0  0  0  0  0
   11.3264    4.1511    8.2697 H   0  0  0  0  0  0  0  0  0  0  0  0
    9.6928    2.8984    7.0140 H   0  0  0  0  0  0  0  0  0  0  0  0
   13.2331    3.2496    5.9607 H   0  0  0  0  0  0  0  0  0  0  0  0
   13.9118    5.5514    5.9298 H   0  0  0  0  0  0  0  0  0  0  0  0
   14.2121    4.1583    3.9977 H   0  0  0  0  0  0  0  0  0  0  0  0
    7.7708    8.2591    4.4387 H   0  0  0  0  0  0  0  0  0  0  0  0
    7.5659   10.4042    3.5301 H   0  0  0  0  0  0  0  0  0  0  0  0
    9.6506    9.6683    4.5080 H   0  0  0  0  0  0  0  0  0  0  0  0
    8.7933   11.4964   -1.7699 H   0  0  0  0  0  0  0  0  0  0  0  0
   11.4729   10.9857   -3.1089 H   0  0  0  0  0  0  0  0  0  0  0  0
    9.8939   10.9857   -4.6031 H   0  0  0  0  0  0  0  0  0  0  0  0
   10.7142    8.9573   -4.1583 H   0  0  0  0  0  0  0  0  0  0  0  0
    7.8106    8.5880   -4.3089 H   0  0  0  0  0  0  0  0  0  0  0  0
    7.1242   10.7866   -4.1779 H   0  0  0  0  0  0  0  0  0  0  0  0
    6.0906    9.1715   -2.9902 H   0  0  0  0  0  0  0  0  0  0  0  0
   14.8859   12.7691    4.8720 H   0  0  0  0  0  0  0  0  0  0  0  0
   13.6060   10.8012    5.2101 H   0  0  0  0  0  0  0  0  0  0  0  0
   10.7840   12.5789    5.3876 H   0  0  0  0  0  0  0  0  0  0  0  0
   11.1241   15.8749    6.2319 H   0  0  0  0  0  0  0  0  0  0  0  0
   11.5267   15.4698    3.9326 H   0  0  0  0  0  0  0  0  0  0  0  0
   13.3844   15.8039    5.4279 H   0  0  0  0  0  0  0  0  0  0  0  0
   11.4197   13.5604    8.5294 H   0  0  0  0  0  0  0  0  0  0  0  0
   13.7821   13.4445    8.1064 H   0  0  0  0  0  0  0  0  0  0  0  0
   12.4403   11.4499    8.0759 H   0  0  0  0  0  0  0  0  0  0  0  0
   18.3530    8.7034    0.3030 H   0  0  0  0  0  0  0  0  0  0  0  0
   17.7603   10.1305    1.8986 H   0  0  0  0  0  0  0  0  0  0  0  0
   18.2786   11.0971   -0.1124 H   0  0  0  0  0  0  0  0  0  0  0  0
   12.9258    6.9518   -4.1169 H   0  0  0  0  0  0  0  0  0  0  0  0
   15.4842    5.3866   -5.3419 H   0  0  0  0  0  0  0  0  0  0  0  0
   14.6187    4.5429   -3.3293 H   0  0  0  0  0  0  0  0  0  0  0  0
   16.6845    5.6640   -3.3310 H   0  0  0  0  0  0  0  0  0  0  0  0
   15.6119    9.1990   -5.2096 H   0  0  0  0  0  0  0  0  0  0  0  0
   10.2052    3.6783   -0.5664 H   0  0  0  0  0  0  0  0  0  0  0  0
    5.4034    5.2738    1.0716 H   0  0  0  0  0  0  0  0  0  0  0  0
    4.3795    7.1828    2.0780 H   0  0  0  0  0  0  0  0  0  0  0  0
    6.5463    6.7246    2.5509 H   0  0  0  0  0  0  0  0  0  0  0  0
    2.8944    8.5251   -2.5576 H   0  0  0  0  0  0  0  0  0  0  0  0
    1.1216    9.6906    1.0193 H   0  0  0  0  0  0  0  0  0  0  0  0
    0.0000    9.3423   -1.0713 H   0  0  0  0  0  0  0  0  0  0  0  0
    1.4790   11.1765   -0.8073 H   0  0  0  0  0  0  0  0  0  0  0  0
    1.9036    6.4343    0.8352 H   0  0  0  0  0  0  0  0  0  0  0  0
    3.1878    5.5570   -1.0126 H   0  0  0  0  0  0  0  0  0  0  0  0
    0.9717    6.2704   -1.3317 H   0  0  0  0  0  0  0  0  0  0  0  0
    6.6314    3.0703   -2.4766 H   0  0  0  0  0  0  0  0  0  0  0  0
    7.0332    2.9197   -0.1025 H   0  0  0  0  0  0  0  0  0  0  0  0
    7.3587    0.0000   -2.3450 H   0  0  0  0  0  0  0  0  0  0  0  0
    8.8320    0.2974   -0.4680 H   0  0  0  0  0  0  0  0  0  0  0  0
    9.8787    0.3504   -4.2641 H   0  0  0  0  0  0  0  0  0  0  0  0
   11.2534    0.6807   -2.3176 H   0  0  0  0  0  0  0  0  0  0  0  0
   11.5122    3.5971   -3.6512 H   0  0  0  0  0  0  0  0  0  0  0  0
    9.3017    3.4601   -4.5781 H   0  0  0  0  0  0  0  0  0  0  0  0
   17.9312    9.3289   -2.2188 H   0  0  0  0  0  0  0  0  0  0  0  0
   16.8253    8.3139   -3.3616 H   0  0  0  0  0  0  0  0  0  0  0  0
  1  2  1  1  0  0  0
  1 27  1  0  0  0  0
  1 28  1  0  0  0  0
  1 79  1  6  0  0  0
  2  3  1  0  0  0  0
  2 80  1  1  0  0  0
  3  4  1  1  0  0  0
  3 73  2  0  0  0  0
  4  5  1  0  0  0  0
  4 70  1  0  0  0  0
  4 81  1  1  0  0  0
  5  6  1  6  0  0  0
  5 69  1  1  0  0  0
  6  7  1  0  0  0  0
  6 68  2  0  0  0  0
  7  8  1  0  0  0  0
  7 67  1  0  0  0  0
  7 82  1  6  0  0  0
  8  9  1  0  0  0  0
  9 10  1  0  0  0  0
  9 66  2  0  0  0  0
 10 11  1  1  0  0  0
 10 63  1  6  0  0  0
 10 83  1  6  0  0  0
 11 12  1  1  0  0  0
 11 62  1  0  0  0  0
 12 13  1  1  0  0  0
 12 61  2  0  0  0  0
 13 14  1  0  0  0  0
 13 57  1  1  0  0  0
 13 84  1  0  0  0  0
 14 15  1  6  0  0  0
 14 85  1  0  0  0  0
 15 16  1  6  0  0  0
 15 56  2  0  0  0  0
 16 17  1  6  0  0  0
 16 53  1  6  0  0  0
 16 86  1  0  0  0  0
 17 18  1  0  0  0  0
 17 52  1  1  0  0  0
 18 19  1  1  0  0  0
 18 51  2  0  0  0  0
 19 20  1  0  0  0  0
 19 47  1  1  0  0  0
 19 87  1  6  0  0  0
 20 21  1  6  0  0  0
 20 88  1  1  0  0  0
 21 22  1  6  0  0  0
 21 46  2  0  0  0  0
 22 23  1  6  0  0  0
 22 45  1  0  0  0  0
 22 89  1  0  0  0  0
 23 24  1  0  0  0  0
 23 44  1  6  0  0  0
 24 25  1  6  0  0  0
 24 43  2  0  0  0  0
 25 26  1  0  0  0  0
 25 36  1  0  0  0  0
 25 90  1  6  0  0  0
 26 27  1  1  0  0  0
 26 91  1  6  0  0  0
 27 35  2  0  0  0  0
 28 29  1  6  0  0  0
 28 92  1  1  0  0  0
 28 93  1  0  0  0  0
 29 30  2  0  0  0  0
 29 34  1  0  0  0  0
 30 31  1  6  0  0  0
 30 94  1  0  0  0  0
 31 32  2  0  0  0  0
 31 95  1  6  0  0  0
 32 33  1  1  0  0  0
 32 96  1  6  0  0  0
 33 34  2  0  0  0  0
 33 97  1  0  0  0  0
 34 98  1  1  0  0  0
 36 37  1  1  0  0  0
 36 99  1  6  0  0  0
 36100  1  0  0  0  0
 37 38  2  0  0  0  0
 37 42  1  0  0  0  0
 38 39  1  1  0  0  0
 38101  1  0  0  0  0
 39 40  2  0  0  0  0
 39102  1  1  0  0  0
 40 41  1  6  0  0  0
 40103  1  1  0  0  0
 41 42  2  0  0  0  0
 41104  1  0  0  0  0
 42105  1  6  0  0  0
 44 78  1  0  0  0  0
 44106  1  0  0  0  0
 44107  1  6  0  0  0
 45 78  1  6  0  0  0
 45108  1  0  0  0  0
 45109  1  1  0  0  0
 47 48  1  1  0  0  0
 47 50  1  0  0  0  0
 47110  1  0  0  0  0
 48 49  1  1  0  0  0
 48111  1  0  0  0  0
 48112  1  0  0  0  0
 49113  1  1  0  0  0
 49114  1  1  0  0  0
 49115  1  0  0  0  0
 50116  1  1  0  0  0
 50117  1  1  0  0  0
 50118  1  6  0  0  0
 52119  1  1  0  0  0
 52120  1  0  0  0  0
 52121  1  1  0  0  0
 53 54  1  6  0  0  0
 53 55  1  6  0  0  0
 53122  1  0  0  0  0
 54123  1  0  0  0  0
 54124  1  6  0  0  0
 54125  1  6  0  0  0
 55126  1  6  0  0  0
 55127  1  6  0  0  0
 55128  1  0  0  0  0
 57 58  1  1  0  0  0
 57129  1  0  0  0  0
 57130  1  0  0  0  0
 58 59  1  0  0  0  0
 58 60  1  1  0  0  0
 58131  1  0  0  0  0
 59132  1  1  0  0  0
 59133  1  6  0  0  0
 59134  1  0  0  0  0
 60135  1  1  0  0  0
 60136  1  0  0  0  0
 60137  1  0  0  0  0
 62138  1  0  0  0  0
 62139  1  1  0  0  0
 62140  1  0  0  0  0
 63 64  1  0  0  0  0
 63 65  1  6  0  0  0
 63141  1  0  0  0  0
 64142  1  6  0  0  0
 64143  1  0  0  0  0
 64144  1  0  0  0  0
 65145  1  0  0  0  0
 67 74  1  0  0  0  0
 67 77  1  6  0  0  0
 67146  1  1  0  0  0
 69147  1  0  0  0  0
 69148  1  0  0  0  0
 69149  1  1  0  0  0
 70 71  1  0  0  0  0
 70 72  1  0  0  0  0
 70150  1  6  0  0  0
 71151  1  1  0  0  0
 71152  1  0  0  0  0
 71153  1  0  0  0  0
 72154  1  1  0  0  0
 72155  1  0  0  0  0
 72156  1  6  0  0  0
 74 75  1  0  0  0  0
 74157  1  6  0  0  0
 74158  1  1  0  0  0
 75 76  1  6  0  0  0
 75159  1  0  0  0  0
 75160  1  1  0  0  0
 76 77  1  0  0  0  0
 76161  1  6  0  0  0
 76162  1  1  0  0  0
 77163  1  0  0  0  0
 77164  1  6  0  0  0
 78165  1  0  0  0  0
 78166  1  6  0  0  0
M  END
>  <Formula> (232)
C59H88N8O11

>  <Name> (232)
5,8-DIBENZYL-26-SEC-BUTYL-14-CYCLOPENTYL-17-(1-HYDROXY-ETHYL)-20-ISOBUTYL-11,23-DIISOPROPYL-12,18,24-TRIMETHYL-OCTADECAHYDRO-15-OXA-3A,6,9,12,18,21,24,27-OCTAAZA-CYCLOPENTACYCLOHEPTACOSENE-4,7,10,13,16,19,22,25,28-NONAONE

>  <Compound classification> (232)
AB-Pept

>  <Microorganism> (232)
Candida parapsilosis

>  <Microorganism type> (232)
C91

>  <Microorganism classification> (232)
yeast

>  <MIC> (232)
0.5

>  <Annotation> (232)
mean MIC of 14 Candida strains

>  <Method abbreviation> (232)
SDT

>  <Ref-Nr> (232)
6789

>  <Marker> (232)
0

>  <Method> (232)
Serial dilution test; Inoculum size: 3x10E3 CFU/ml; Medium: Yeast nitrogen broth; pH: 5.4; Incubation-temperature: 37 degrees Centigrade; Incubation-time: 48h; Solubility enhancer: various vehicles

>  <Reference> (232)
Cooper, A.B., Saksena, A.K., Rane, D.F., Jao, E., Ginjavallabhan, V.M., Ganguly, A., Desai, J.J., Wang, J.: Anti-Fungal Agents; US 5,739,104 (1998)

>  <mol_id> (232)
3561

>  <MolWeight> (232)
1085.39

>  <Nickname> (232)
Cyclodepsipeptide VI

$$$$

csChmFindW11180110282D

166170  0  0  0  0  0  0  0  0999 V2000
    6.8008   13.9824   -1.9520 C   0  0  0  0  0  0  0  0  0  0  0  0
    6.2318   12.4187   -0.8025 N   0  0  0  0  0  0  0  0  0  0  0  0
    4.9558   11.1773   -1.3875 C   0  0  0  0  0  0  0  0  0  0  0  0
    4.6898    9.2443   -0.3894 C   0  0  0  0  0  0  0  0  0  0  0  0
    6.1873    7.7711   -0.1404 N   0  0  0  0  0  0  0  0  0  0  0  0
    6.8315    6.7011   -1.6015 C   0  0  0  0  0  0  0  0  0  0  0  0
    8.9408    6.0421   -1.7928 C   0  0  0  0  0  0  0  0  0  0  0  0
   10.4959    7.2257   -1.5323 O   0  0  0  0  0  0  0  0  0  0  0  0
   12.3102    6.8304   -1.2518 C   0  0  0  0  0  0  0  0  0  0  0  0
   13.9282    8.6080   -1.7188 C   0  0  0  0  0  0  0  0  0  0  0  0
   15.4492   10.0613    0.0104 N   0  0  0  0  0  0  0  0  0  0  0  0
   14.9764   11.7275    1.2801 C   0  0  0  0  0  0  0  0  0  0  0  0
   13.2026   12.0494    2.5485 C   0  0  0  0  0  0  0  0  0  0  0  0
   11.5387   11.0401    2.1989 N   0  0  0  0  0  0  0  0  0  0  0  0
    9.9767   11.5369    1.3596 C   0  0  0  0  0  0  0  0  0  0  0  0
    9.0577    9.9488    0.4218 C   0  0  0  0  0  0  0  0  0  0  0  0
    9.1193    8.5390    1.9108 N   0  0  0  0  0  0  0  0  0  0  0  0
    9.8624    6.8371    1.9348 C   0  0  0  0  0  0  0  0  0  0  0  0
   11.5953    6.4798    2.9738 C   0  0  0  0  0  0  0  0  0  0  0  0
   12.6483    7.9774    3.6476 N   0  0  0  0  0  0  0  0  0  0  0  0
   13.9412    8.7922    2.6155 C   0  0  0  0  0  0  0  0  0  0  0  0
   13.4693    9.1167    0.5570 C   0  0  0  0  0  0  0  0  0  0  0  0
   13.5168   11.1540   -0.9688 N   0  0  0  0  0  0  0  0  0  0  0  0
   12.5156   12.8133   -1.0048 C   0  0  0  0  0  0  0  0  0  0  0  0
   12.0414   13.8577   -2.7386 C   0  0  0  0  0  0  0  0  0  0  0  0
   10.0306   13.9414   -2.9747 N   0  0  0  0  0  0  0  0  0  0  0  0
    8.7935   14.6087   -1.7396 C   0  0  0  0  0  0  0  0  0  0  0  0
    5.5322   15.5632   -1.6021 C   0  0  0  0  0  0  0  0  0  0  0  0
    5.9379   17.1574   -2.7749 C   0  0  0  0  0  0  0  0  0  0  0  0
    5.8215   17.0262   -4.6358 C   0  0  0  0  0  0  0  0  0  0  0  0
    6.2060   18.4848   -5.7300 C   0  0  0  0  0  0  0  0  0  0  0  0
    6.6964   20.1140   -4.9723 C   0  0  0  0  0  0  0  0  0  0  0  0
    6.7963   20.2715   -3.1190 C   0  0  0  0  0  0  0  0  0  0  0  0
    6.4265   18.8018   -2.0336 C   0  0  0  0  0  0  0  0  0  0  0  0
    9.1848   15.6205   -0.5469 O   0  0  0  0  0  0  0  0  0  0  0  0
   12.9923   15.6816   -2.9104 C   0  0  0  0  0  0  0  0  0  0  0  0
   12.6065   17.0730   -1.5007 C   0  0  0  0  0  0  0  0  0  0  0  0
   13.5546   17.0972    0.1107 C   0  0  0  0  0  0  0  0  0  0  0  0
   13.1990   18.3739    1.4205 C   0  0  0  0  0  0  0  0  0  0  0  0
   11.9096   19.6831    1.1174 C   0  0  0  0  0  0  0  0  0  0  0  0
   10.9987   19.7158   -0.5070 C   0  0  0  0  0  0  0  0  0  0  0  0
   11.3510   18.4248   -1.8046 C   0  0  0  0  0  0  0  0  0  0  0  0
   11.9024   13.6922    0.1775 O   0  0  0  0  0  0  0  0  0  0  0  0
   15.2303   10.9998   -2.3974 C   0  0  0  0  0  0  0  0  0  0  0  0
   15.4910    7.6541   -0.2205 C   0  0  0  0  0  0  0  0  0  0  0  0
   15.3307    9.1059    3.3704 O   0  0  0  0  0  0  0  0  0  0  0  0
   11.4247    5.0202    4.4378 C   0  0  0  0  0  0  0  0  0  0  0  0
   10.1845    5.5967    5.9719 C   0  0  0  0  0  0  0  0  0  0  0  0
   10.0524    4.2525    7.5122 C   0  0  0  0  0  0  0  0  0  0  0  0
   13.2887    4.4729    5.1198 C   0  0  0  0  0  0  0  0  0  0  0  0
    9.0446    5.5301    1.4796 O   0  0  0  0  0  0  0  0  0  0  0  0
    8.5111    9.2662    3.6480 C   0  0  0  0  0  0  0  0  0  0  0  0
    8.9287   10.0255   -1.8837 C   0  0  0  0  0  0  0  0  0  0  0  0
   10.3249   10.1842   -3.4271 C   0  0  0  0  0  0  0  0  0  0  0  0
    7.4300    9.6180   -3.3092 C   0  0  0  0  0  0  0  0  0  0  0  0
    9.2718   12.9749    1.5522 O   0  0  0  0  0  0  0  0  0  0  0  0
   13.5577   12.1509    4.6001 C   0  0  0  0  0  0  0  0  0  0  0  0
   12.1234   13.1637    5.6956 C   0  0  0  0  0  0  0  0  0  0  0  0
   12.0431   15.1780    5.2939 C   0  0  0  0  0  0  0  0  0  0  0  0
   12.4615   12.8903    7.7071 C   0  0  0  0  0  0  0  0  0  0  0  0
   16.1023   12.8549    1.5809 O   0  0  0  0  0  0  0  0  0  0  0  0
   17.5296    9.9336    0.4456 C   0  0  0  0  0  0  0  0  0  0  0  0
   14.2674    7.4954   -3.6937 C   0  0  0  0  0  0  0  0  0  0  0  0
   15.3183    5.7192   -3.9008 C   0  0  0  0  0  0  0  0  0  0  0  0
   14.5109    8.6041   -5.2488 O   0  0  0  0  0  0  0  0  0  0  0  0
   12.7467    5.3045   -0.9509 O   0  0  0  0  0  0  0  0  0  0  0  0
    9.2946    4.0083   -1.6957 C   0  0  0  0  0  0  0  0  0  0  0  0
    5.8179    6.2116   -2.7668 O   0  0  0  0  0  0  0  0  0  0  0  0
    5.6140    6.7003    1.4214 C   0  0  0  0  0  0  0  0  0  0  0  0
    2.8372    8.5175   -1.0634 C   0  0  0  0  0  0  0  0  0  0  0  0
    1.2914    9.7487   -0.4566 C   0  0  0  0  0  0  0  0  0  0  0  0
    2.2251    6.6049   -0.6033 C   0  0  0  0  0  0  0  0  0  0  0  0
    4.0491   11.5365   -2.6788 O   0  0  0  0  0  0  0  0  0  0  0  0
    7.6611    2.7863   -1.4416 C   0  0  0  0  0  0  0  0  0  0  0  0
    8.3942    0.8944   -1.7611 C   0  0  0  0  0  0  0  0  0  0  0  0
   10.0117    1.1328   -3.0065 C   0  0  0  0  0  0  0  0  0  0  0  0
   10.1246    3.1488   -3.3757 C   0  0  0  0  0  0  0  0  0  0  0  0
   16.4846    9.0163   -2.1239 C   0  0  0  0  0  0  0  0  0  0  0  0
    6.6747   13.5968   -3.3841 H   0  0  0  0  0  0  0  0  0  0  0  0
    6.8012   12.3023    0.4147 H   0  0  0  0  0  0  0  0  0  0  0  0
    4.4514    9.7944    0.9821 H   0  0  0  0  0  0  0  0  0  0  0  0
    8.8808    6.1108   -3.2929 H   0  0  0  0  0  0  0  0  0  0  0  0
   12.8683    9.2874   -2.4719 H   0  0  0  0  0  0  0  0  0  0  0  0
   13.0222   13.5211    2.5001 H   0  0  0  0  0  0  0  0  0  0  0  0
   11.5504    9.7388    2.5001 H   0  0  0  0  0  0  0  0  0  0  0  0
    7.6387   10.3115    0.6447 H   0  0  0  0  0  0  0  0  0  0  0  0
   12.4677    5.7920    1.9847 H   0  0  0  0  0  0  0  0  0  0  0  0
   12.9170    7.9900    4.9695 H   0  0  0  0  0  0  0  0  0  0  0  0
   12.0778    8.6640    0.5949 H   0  0  0  0  0  0  0  0  0  0  0  0
   12.5803   13.1450   -3.9308 H   0  0  0  0  0  0  0  0  0  0  0  0
    9.5103   13.2993   -4.0395 H   0  0  0  0  0  0  0  0  0  0  0  0
    5.5948   15.9307   -0.1622 H   0  0  0  0  0  0  0  0  0  0  0  0
    4.1245   15.1558   -1.8660 H   0  0  0  0  0  0  0  0  0  0  0  0
    5.4185   15.7573   -5.2604 H   0  0  0  0  0  0  0  0  0  0  0  0
    6.1140   18.3530   -7.1924 H   0  0  0  0  0  0  0  0  0  0  0  0
    6.9950   21.2702   -5.8309 H   0  0  0  0  0  0  0  0  0  0  0  0
    7.1741   21.5578   -2.5137 H   0  0  0  0  0  0  0  0  0  0  0  0
    6.5252   18.9515   -0.5737 H   0  0  0  0  0  0  0  0  0  0  0  0
   12.6769   16.2627   -4.2457 H   0  0  0  0  0  0  0  0  0  0  0  0
   14.4655   15.4512   -2.9193 H   0  0  0  0  0  0  0  0  0  0  0  0
   14.5937   16.0882    0.3661 H   0  0  0  0  0  0  0  0  0  0  0  0
   13.9405   18.3524    2.6908 H   0  0  0  0  0  0  0  0  0  0  0  0
   11.6257   20.6957    2.1456 H   0  0  0  0  0  0  0  0  0  0  0  0
    9.9966   20.7615   -0.7595 H   0  0  0  0  0  0  0  0  0  0  0  0
   10.6122   18.4683   -3.0762 H   0  0  0  0  0  0  0  0  0  0  0  0
   16.1318   12.1743   -2.1983 H   0  0  0  0  0  0  0  0  0  0  0  0
   14.7933   11.2365   -3.7911 H   0  0  0  0  0  0  0  0  0  0  0  0
   15.3363    6.2443   -0.6307 H   0  0  0  0  0  0  0  0  0  0  0  0
   16.3169    7.2178    0.9372 H   0  0  0  0  0  0  0  0  0  0  0  0
   10.8280    3.7944    3.8213 H   0  0  0  0  0  0  0  0  0  0  0  0
    8.8113    5.7699    5.4249 H   0  0  0  0  0  0  0  0  0  0  0  0
   10.6290    6.9112    6.5119 H   0  0  0  0  0  0  0  0  0  0  0  0
    9.0072    4.6666    8.4867 H   0  0  0  0  0  0  0  0  0  0  0  0
   11.3264    4.1511    8.2697 H   0  0  0  0  0  0  0  0  0  0  0  0
    9.6928    2.8984    7.0140 H   0  0  0  0  0  0  0  0  0  0  0  0
   13.2331    3.2496    5.9607 H   0  0  0  0  0  0  0  0  0  0  0  0
   13.9118    5.5514    5.9298 H   0  0  0  0  0  0  0  0  0  0  0  0
   14.2121    4.1583    3.9977 H   0  0  0  0  0  0  0  0  0  0  0  0
    7.7708    8.2591    4.4387 H   0  0  0  0  0  0  0  0  0  0  0  0
    7.5659   10.4042    3.5301 H   0  0  0  0  0  0  0  0  0  0  0  0
    9.6506    9.6683    4.5080 H   0  0  0  0  0  0  0  0  0  0  0  0
    8.7933   11.4964   -1.7699 H   0  0  0  0  0  0  0  0  0  0  0  0
   11.4729   10.9857   -3.1089 H   0  0  0  0  0  0  0  0  0  0  0  0
    9.8939   10.9857   -4.6031 H   0  0  0  0  0  0  0  0  0  0  0  0
   10.7142    8.9573   -4.1583 H   0  0  0  0  0  0  0  0  0  0  0  0
    7.8106    8.5880   -4.3089 H   0  0  0  0  0  0  0  0  0  0  0  0
    7.1242   10.7866   -4.1779 H   0  0  0  0  0  0  0  0  0  0  0  0
    6.0906    9.1715   -2.9902 H   0  0  0  0  0  0  0  0  0  0  0  0
   14.8859   12.7691    4.8720 H   0  0  0  0  0  0  0  0  0  0  0  0
   13.6060   10.8012    5.2101 H   0  0  0  0  0  0  0  0  0  0  0  0
   10.7840   12.5789    5.3876 H   0  0  0  0  0  0  0  0  0  0  0  0
   11.1241   15.8749    6.2319 H   0  0  0  0  0  0  0  0  0  0  0  0
   11.5267   15.4698    3.9326 H   0  0  0  0  0  0  0  0  0  0  0  0
   13.3844   15.8039    5.4279 H   0  0  0  0  0  0  0  0  0  0  0  0
   11.4197   13.5604    8.5294 H   0  0  0  0  0  0  0  0  0  0  0  0
   13.7821   13.4445    8.1064 H   0  0  0  0  0  0  0  0  0  0  0  0
   12.4403   11.4499    8.0759 H   0  0  0  0  0  0  0  0  0  0  0  0
   18.3530    8.7034    0.3030 H   0  0  0  0  0  0  0  0  0  0  0  0
   17.7603   10.1305    1.8986 H   0  0  0  0  0  0  0  0  0  0  0  0
   18.2786   11.0971   -0.1124 H   0  0  0  0  0  0  0  0  0  0  0  0
   12.9258    6.9518   -4.1169 H   0  0  0  0  0  0  0  0  0  0  0  0
   15.4842    5.3866   -5.3419 H   0  0  0  0  0  0  0  0  0  0  0  0
   14.6187    4.5429   -3.3293 H   0  0  0  0  0  0  0  0  0  0  0  0
   16.6845    5.6640   -3.3310 H   0  0  0  0  0  0  0  0  0  0  0  0
   15.6119    9.1990   -5.2096 H   0  0  0  0  0  0  0  0  0  0  0  0
   10.2052    3.6783   -0.5664 H   0  0  0  0  0  0  0  0  0  0  0  0
    5.4034    5.2738    1.0716 H   0  0  0  0  0  0  0  0  0  0  0  0
    4.3795    7.1828    2.0780 H   0  0  0  0  0  0  0  0  0  0  0  0
    6.5463    6.7246    2.5509 H   0  0  0  0  0  0  0  0  0  0  0  0
    2.8944    8.5251   -2.5576 H   0  0  0  0  0  0  0  0  0  0  0  0
    1.1216    9.6906    1.0193 H   0  0  0  0  0  0  0  0  0  0  0  0
    0.0000    9.3423   -1.0713 H   0  0  0  0  0  0  0  0  0  0  0  0
    1.4790   11.1765   -0.8073 H   0  0  0  0  0  0  0  0  0  0  0  0
    1.9036    6.4343    0.8352 H   0  0  0  0  0  0  0  0  0  0  0  0
    3.1878    5.5570   -1.0126 H   0  0  0  0  0  0  0  0  0  0  0  0
    0.9717    6.2704   -1.3317 H   0  0  0  0  0  0  0  0  0  0  0  0
    6.6314    3.0703   -2.4766 H   0  0  0  0  0  0  0  0  0  0  0  0
    7.0332    2.9197   -0.1025 H   0  0  0  0  0  0  0  0  0  0  0  0
    7.3587    0.0000   -2.3450 H   0  0  0  0  0  0  0  0  0  0  0  0
    8.8320    0.2974   -0.4680 H   0  0  0  0  0  0  0  0  0  0  0  0
    9.8787    0.3504   -4.2641 H   0  0  0  0  0  0  0  0  0  0  0  0
   11.2534    0.6807   -2.3176 H   0  0  0  0  0  0  0  0  0  0  0  0
   11.5122    3.5971   -3.6512 H   0  0  0  0  0  0  0  0  0  0  0  0
    9.3017    3.4601   -4.5781 H   0  0  0  0  0  0  0  0  0  0  0  0
   17.9312    9.3289   -2.2188 H   0  0  0  0  0  0  0  0  0  0  0  0
   16.8253    8.3139   -3.3616 H   0  0  0  0  0  0  0  0  0  0  0  0
  1  2  1  1  0  0  0
  1 27  1  0  0  0  0
  1 28  1  0  0  0  0
  1 79  1  6  0  0  0
  2  3  1  0  0  0  0
  2 80  1  1  0  0  0
  3  4  1  1  0  0  0
  3 73  2  0  0  0  0
  4  5  1  0  0  0  0
  4 70  1  0  0  0  0
  4 81  1  1  0  0  0
  5  6  1  6  0  0  0
  5 69  1  1  0  0  0
  6  7  1  0  0  0  0
  6 68  2  0  0  0  0
  7  8  1  0  0  0  0
  7 67  1  0  0  0  0
  7 82  1  6  0  0  0
  8  9  1  0  0  0  0
  9 10  1  0  0  0  0
  9 66  2  0  0  0  0
 10 11  1  1  0  0  0
 10 63  1  6  0  0  0
 10 83  1  6  0  0  0
 11 12  1  1  0  0  0
 11 62  1  0  0  0  0
 12 13  1  1  0  0  0
 12 61  2  0  0  0  0
 13 14  1  0  0  0  0
 13 57  1  1  0  0  0
 13 84  1  0  0  0  0
 14 15  1  6  0  0  0
 14 85  1  0  0  0  0
 15 16  1  6  0  0  0
 15 56  2  0  0  0  0
 16 17  1  6  0  0  0
 16 53  1  6  0  0  0
 16 86  1  0  0  0  0
 17 18  1  0  0  0  0
 17 52  1  1  0  0  0
 18 19  1  1  0  0  0
 18 51  2  0  0  0  0
 19 20  1  0  0  0  0
 19 47  1  1  0  0  0
 19 87  1  6  0  0  0
 20 21  1  6  0  0  0
 20 88  1  1  0  0  0
 21 22  1  6  0  0  0
 21 46  2  0  0  0  0
 22 23  1  6  0  0  0
 22 45  1  0  0  0  0
 22 89  1  0  0  0  0
 23 24  1  0  0  0  0
 23 44  1  6  0  0  0
 24 25  1  6  0  0  0
 24 43  2  0  0  0  0
 25 26  1  0  0  0  0
 25 36  1  0  0  0  0
 25 90  1  6  0  0  0
 26 27  1  1  0  0  0
 26 91  1  6  0  0  0
 27 35  2  0  0  0  0
 28 29  1  6  0  0  0
 28 92  1  1  0  0  0
 28 93  1  0  0  0  0
 29 30  2  0  0  0  0
 29 34  1  0  0  0  0
 30 31  1  6  0  0  0
 30 94  1  0  0  0  0
 31 32  2  0  0  0  0
 31 95  1  6  0  0  0
 32 33  1  1  0  0  0
 32 96  1  6  0  0  0
 33 34  2  0  0  0  0
 33 97  1  0  0  0  0
 34 98  1  1  0  0  0
 36 37  1  1  0  0  0
 36 99  1  6  0  0  0
 36100  1  0  0  0  0
 37 38  2  0  0  0  0
 37 42  1  0  0  0  0
 38 39  1  1  0  0  0
 38101  1  0  0  0  0
 39 40  2  0  0  0  0
 39102  1  1  0  0  0
 40 41  1  6  0  0  0
 40103  1  1  0  0  0
 41 42  2  0  0  0  0
 41104  1  0  0  0  0
 42105  1  6  0  0  0
 44 78  1  0  0  0  0
 44106  1  0  0  0  0
 44107  1  6  0  0  0
 45 78  1  6  0  0  0
 45108  1  0  0  0  0
 45109  1  1  0  0  0
 47 48  1  1  0  0  0
 47 50  1  0  0  0  0
 47110  1  0  0  0  0
 48 49  1  1  0  0  0
 48111  1  0  0  0  0
 48112  1  0  0  0  0
 49113  1  1  0  0  0
 49114  1  1  0  0  0
 49115  1  0  0  0  0
 50116  1  1  0  0  0
 50117  1  1  0  0  0
 50118  1  6  0  0  0
 52119  1  1  0  0  0
 52120  1  0  0  0  0
 52121  1  1  0  0  0
 53 54  1  6  0  0  0
 53 55  1  6  0  0  0
 53122  1  0  0  0  0
 54123  1  0  0  0  0
 54124  1  6  0  0  0
 54125  1  6  0  0  0
 55126  1  6  0  0  0
 55127  1  6  0  0  0
 55128  1  0  0  0  0
 57 58  1  1  0  0  0
 57129  1  0  0  0  0
 57130  1  0  0  0  0
 58 59  1  0  0  0  0
 58 60  1  1  0  0  0
 58131  1  0  0  0  0
 59132  1  1  0  0  0
 59133  1  6  0  0  0
 59134  1  0  0  0  0
 60135  1  1  0  0  0
 60136  1  0  0  0  0
 60137  1  0  0  0  0
 62138  1  0  0  0  0
 62139  1  1  0  0  0
 62140  1  0  0  0  0
 63 64  1  0  0  0  0
 63 65  1  6  0  0  0
 63141  1  0  0  0  0
 64142  1  6  0  0  0
 64143  1  0  0  0  0
 64144  1  0  0  0  0
 65145  1  0  0  0  0
 67 74  1  0  0  0  0
 67 77  1  6  0  0  0
 67146  1  1  0  0  0
 69147  1  0  0  0  0
 69148  1  0  0  0  0
 69149  1  1  0  0  0
 70 71  1  0  0  0  0
 70 72  1  0  0  0  0
 70150  1  6  0  0  0
 71151  1  1  0  0  0
 71152  1  0  0  0  0
 71153  1  0  0  0  0
 72154  1  1  0  0  0
 72155  1  0  0  0  0
 72156  1  6  0  0  0
 74 75  1  0  0  0  0
 74157  1  6  0  0  0
 74158  1  1  0  0  0
 75 76  1  6  0  0  0
 75159  1  0  0  0  0
 75160  1  1  0  0  0
 76 77  1  0  0  0  0
 76161  1  6  0  0  0
 76162  1  1  0  0  0
 77163  1  0  0  0  0
 77164  1  6  0  0  0
 78165  1  0  0  0  0
 78166  1  6  0  0  0
M  END
>  <Formula> (233)
C59H88N8O11

>  <Name> (233)
5,8-DIBENZYL-26-SEC-BUTYL-14-CYCLOPENTYL-17-(1-HYDROXY-ETHYL)-20-ISOBUTYL-11,23-DIISOPROPYL-12,18,24-TRIMETHYL-OCTADECAHYDRO-15-OXA-3A,6,9,12,18,21,24,27-OCTAAZA-CYCLOPENTACYCLOHEPTACOSENE-4,7,10,13,16,19,22,25,28-NONAONE

>  <Compound classification> (233)
AB-Pept

>  <Microorganism> (233)
Candida parapsilosis

>  <Microorganism type> (233)
C53

>  <Microorganism classification> (233)
yeast

>  <MIC> (233)
0.5

>  <Annotation> (233)
mean MIC of 14 Candida strains

>  <Method abbreviation> (233)
SDT

>  <Ref-Nr> (233)
6789

>  <Marker> (233)
0

>  <Method> (233)
Serial dilution test; Inoculum size: 3x10E3 CFU/ml; Medium: Yeast nitrogen broth; pH: 5.4; Incubation-temperature: 37 degrees Centigrade; Incubation-time: 48h; Solubility enhancer: various vehicles

>  <Reference> (233)
Cooper, A.B., Saksena, A.K., Rane, D.F., Jao, E., Ginjavallabhan, V.M., Ganguly, A., Desai, J.J., Wang, J.: Anti-Fungal Agents; US 5,739,104 (1998)

>  <mol_id> (233)
3561

>  <MolWeight> (233)
1085.39

>  <Nickname> (233)
Cyclodepsipeptide VI

$$$$

csChmFindW11180110282D

166170  0  0  0  0  0  0  0  0999 V2000
    6.8008   13.9824   -1.9520 C   0  0  0  0  0  0  0  0  0  0  0  0
    6.2318   12.4187   -0.8025 N   0  0  0  0  0  0  0  0  0  0  0  0
    4.9558   11.1773   -1.3875 C   0  0  0  0  0  0  0  0  0  0  0  0
    4.6898    9.2443   -0.3894 C   0  0  0  0  0  0  0  0  0  0  0  0
    6.1873    7.7711   -0.1404 N   0  0  0  0  0  0  0  0  0  0  0  0
    6.8315    6.7011   -1.6015 C   0  0  0  0  0  0  0  0  0  0  0  0
    8.9408    6.0421   -1.7928 C   0  0  0  0  0  0  0  0  0  0  0  0
   10.4959    7.2257   -1.5323 O   0  0  0  0  0  0  0  0  0  0  0  0
   12.3102    6.8304   -1.2518 C   0  0  0  0  0  0  0  0  0  0  0  0
   13.9282    8.6080   -1.7188 C   0  0  0  0  0  0  0  0  0  0  0  0
   15.4492   10.0613    0.0104 N   0  0  0  0  0  0  0  0  0  0  0  0
   14.9764   11.7275    1.2801 C   0  0  0  0  0  0  0  0  0  0  0  0
   13.2026   12.0494    2.5485 C   0  0  0  0  0  0  0  0  0  0  0  0
   11.5387   11.0401    2.1989 N   0  0  0  0  0  0  0  0  0  0  0  0
    9.9767   11.5369    1.3596 C   0  0  0  0  0  0  0  0  0  0  0  0
    9.0577    9.9488    0.4218 C   0  0  0  0  0  0  0  0  0  0  0  0
    9.1193    8.5390    1.9108 N   0  0  0  0  0  0  0  0  0  0  0  0
    9.8624    6.8371    1.9348 C   0  0  0  0  0  0  0  0  0  0  0  0
   11.5953    6.4798    2.9738 C   0  0  0  0  0  0  0  0  0  0  0  0
   12.6483    7.9774    3.6476 N   0  0  0  0  0  0  0  0  0  0  0  0
   13.9412    8.7922    2.6155 C   0  0  0  0  0  0  0  0  0  0  0  0
   13.4693    9.1167    0.5570 C   0  0  0  0  0  0  0  0  0  0  0  0
   13.5168   11.1540   -0.9688 N   0  0  0  0  0  0  0  0  0  0  0  0
   12.5156   12.8133   -1.0048 C   0  0  0  0  0  0  0  0  0  0  0  0
   12.0414   13.8577   -2.7386 C   0  0  0  0  0  0  0  0  0  0  0  0
   10.0306   13.9414   -2.9747 N   0  0  0  0  0  0  0  0  0  0  0  0
    8.7935   14.6087   -1.7396 C   0  0  0  0  0  0  0  0  0  0  0  0
    5.5322   15.5632   -1.6021 C   0  0  0  0  0  0  0  0  0  0  0  0
    5.9379   17.1574   -2.7749 C   0  0  0  0  0  0  0  0  0  0  0  0
    5.8215   17.0262   -4.6358 C   0  0  0  0  0  0  0  0  0  0  0  0
    6.2060   18.4848   -5.7300 C   0  0  0  0  0  0  0  0  0  0  0  0
    6.6964   20.1140   -4.9723 C   0  0  0  0  0  0  0  0  0  0  0  0
    6.7963   20.2715   -3.1190 C   0  0  0  0  0  0  0  0  0  0  0  0
    6.4265   18.8018   -2.0336 C   0  0  0  0  0  0  0  0  0  0  0  0
    9.1848   15.6205   -0.5469 O   0  0  0  0  0  0  0  0  0  0  0  0
   12.9923   15.6816   -2.9104 C   0  0  0  0  0  0  0  0  0  0  0  0
   12.6065   17.0730   -1.5007 C   0  0  0  0  0  0  0  0  0  0  0  0
   13.5546   17.0972    0.1107 C   0  0  0  0  0  0  0  0  0  0  0  0
   13.1990   18.3739    1.4205 C   0  0  0  0  0  0  0  0  0  0  0  0
   11.9096   19.6831    1.1174 C   0  0  0  0  0  0  0  0  0  0  0  0
   10.9987   19.7158   -0.5070 C   0  0  0  0  0  0  0  0  0  0  0  0
   11.3510   18.4248   -1.8046 C   0  0  0  0  0  0  0  0  0  0  0  0
   11.9024   13.6922    0.1775 O   0  0  0  0  0  0  0  0  0  0  0  0
   15.2303   10.9998   -2.3974 C   0  0  0  0  0  0  0  0  0  0  0  0
   15.4910    7.6541   -0.2205 C   0  0  0  0  0  0  0  0  0  0  0  0
   15.3307    9.1059    3.3704 O   0  0  0  0  0  0  0  0  0  0  0  0
   11.4247    5.0202    4.4378 C   0  0  0  0  0  0  0  0  0  0  0  0
   10.1845    5.5967    5.9719 C   0  0  0  0  0  0  0  0  0  0  0  0
   10.0524    4.2525    7.5122 C   0  0  0  0  0  0  0  0  0  0  0  0
   13.2887    4.4729    5.1198 C   0  0  0  0  0  0  0  0  0  0  0  0
    9.0446    5.5301    1.4796 O   0  0  0  0  0  0  0  0  0  0  0  0
    8.5111    9.2662    3.6480 C   0  0  0  0  0  0  0  0  0  0  0  0
    8.9287   10.0255   -1.8837 C   0  0  0  0  0  0  0  0  0  0  0  0
   10.3249   10.1842   -3.4271 C   0  0  0  0  0  0  0  0  0  0  0  0
    7.4300    9.6180   -3.3092 C   0  0  0  0  0  0  0  0  0  0  0  0
    9.2718   12.9749    1.5522 O   0  0  0  0  0  0  0  0  0  0  0  0
   13.5577   12.1509    4.6001 C   0  0  0  0  0  0  0  0  0  0  0  0
   12.1234   13.1637    5.6956 C   0  0  0  0  0  0  0  0  0  0  0  0
   12.0431   15.1780    5.2939 C   0  0  0  0  0  0  0  0  0  0  0  0
   12.4615   12.8903    7.7071 C   0  0  0  0  0  0  0  0  0  0  0  0
   16.1023   12.8549    1.5809 O   0  0  0  0  0  0  0  0  0  0  0  0
   17.5296    9.9336    0.4456 C   0  0  0  0  0  0  0  0  0  0  0  0
   14.2674    7.4954   -3.6937 C   0  0  0  0  0  0  0  0  0  0  0  0
   15.3183    5.7192   -3.9008 C   0  0  0  0  0  0  0  0  0  0  0  0
   14.5109    8.6041   -5.2488 O   0  0  0  0  0  0  0  0  0  0  0  0
   12.7467    5.3045   -0.9509 O   0  0  0  0  0  0  0  0  0  0  0  0
    9.2946    4.0083   -1.6957 C   0  0  0  0  0  0  0  0  0  0  0  0
    5.8179    6.2116   -2.7668 O   0  0  0  0  0  0  0  0  0  0  0  0
    5.6140    6.7003    1.4214 C   0  0  0  0  0  0  0  0  0  0  0  0
    2.8372    8.5175   -1.0634 C   0  0  0  0  0  0  0  0  0  0  0  0
    1.2914    9.7487   -0.4566 C   0  0  0  0  0  0  0  0  0  0  0  0
    2.2251    6.6049   -0.6033 C   0  0  0  0  0  0  0  0  0  0  0  0
    4.0491   11.5365   -2.6788 O   0  0  0  0  0  0  0  0  0  0  0  0
    7.6611    2.7863   -1.4416 C   0  0  0  0  0  0  0  0  0  0  0  0
    8.3942    0.8944   -1.7611 C   0  0  0  0  0  0  0  0  0  0  0  0
   10.0117    1.1328   -3.0065 C   0  0  0  0  0  0  0  0  0  0  0  0
   10.1246    3.1488   -3.3757 C   0  0  0  0  0  0  0  0  0  0  0  0
   16.4846    9.0163   -2.1239 C   0  0  0  0  0  0  0  0  0  0  0  0
    6.6747   13.5968   -3.3841 H   0  0  0  0  0  0  0  0  0  0  0  0
    6.8012   12.3023    0.4147 H   0  0  0  0  0  0  0  0  0  0  0  0
    4.4514    9.7944    0.9821 H   0  0  0  0  0  0  0  0  0  0  0  0
    8.8808    6.1108   -3.2929 H   0  0  0  0  0  0  0  0  0  0  0  0
   12.8683    9.2874   -2.4719 H   0  0  0  0  0  0  0  0  0  0  0  0
   13.0222   13.5211    2.5001 H   0  0  0  0  0  0  0  0  0  0  0  0
   11.5504    9.7388    2.5001 H   0  0  0  0  0  0  0  0  0  0  0  0
    7.6387   10.3115    0.6447 H   0  0  0  0  0  0  0  0  0  0  0  0
   12.4677    5.7920    1.9847 H   0  0  0  0  0  0  0  0  0  0  0  0
   12.9170    7.9900    4.9695 H   0  0  0  0  0  0  0  0  0  0  0  0
   12.0778    8.6640    0.5949 H   0  0  0  0  0  0  0  0  0  0  0  0
   12.5803   13.1450   -3.9308 H   0  0  0  0  0  0  0  0  0  0  0  0
    9.5103   13.2993   -4.0395 H   0  0  0  0  0  0  0  0  0  0  0  0
    5.5948   15.9307   -0.1622 H   0  0  0  0  0  0  0  0  0  0  0  0
    4.1245   15.1558   -1.8660 H   0  0  0  0  0  0  0  0  0  0  0  0
    5.4185   15.7573   -5.2604 H   0  0  0  0  0  0  0  0  0  0  0  0
    6.1140   18.3530   -7.1924 H   0  0  0  0  0  0  0  0  0  0  0  0
    6.9950   21.2702   -5.8309 H   0  0  0  0  0  0  0  0  0  0  0  0
    7.1741   21.5578   -2.5137 H   0  0  0  0  0  0  0  0  0  0  0  0
    6.5252   18.9515   -0.5737 H   0  0  0  0  0  0  0  0  0  0  0  0
   12.6769   16.2627   -4.2457 H   0  0  0  0  0  0  0  0  0  0  0  0
   14.4655   15.4512   -2.9193 H   0  0  0  0  0  0  0  0  0  0  0  0
   14.5937   16.0882    0.3661 H   0  0  0  0  0  0  0  0  0  0  0  0
   13.9405   18.3524    2.6908 H   0  0  0  0  0  0  0  0  0  0  0  0
   11.6257   20.6957    2.1456 H   0  0  0  0  0  0  0  0  0  0  0  0
    9.9966   20.7615   -0.7595 H   0  0  0  0  0  0  0  0  0  0  0  0
   10.6122   18.4683   -3.0762 H   0  0  0  0  0  0  0  0  0  0  0  0
   16.1318   12.1743   -2.1983 H   0  0  0  0  0  0  0  0  0  0  0  0
   14.7933   11.2365   -3.7911 H   0  0  0  0  0  0  0  0  0  0  0  0
   15.3363    6.2443   -0.6307 H   0  0  0  0  0  0  0  0  0  0  0  0
   16.3169    7.2178    0.9372 H   0  0  0  0  0  0  0  0  0  0  0  0
   10.8280    3.7944    3.8213 H   0  0  0  0  0  0  0  0  0  0  0  0
    8.8113    5.7699    5.4249 H   0  0  0  0  0  0  0  0  0  0  0  0
   10.6290    6.9112    6.5119 H   0  0  0  0  0  0  0  0  0  0  0  0
    9.0072    4.6666    8.4867 H   0  0  0  0  0  0  0  0  0  0  0  0
   11.3264    4.1511    8.2697 H   0  0  0  0  0  0  0  0  0  0  0  0
    9.6928    2.8984    7.0140 H   0  0  0  0  0  0  0  0  0  0  0  0
   13.2331    3.2496    5.9607 H   0  0  0  0  0  0  0  0  0  0  0  0
   13.9118    5.5514    5.9298 H   0  0  0  0  0  0  0  0  0  0  0  0
   14.2121    4.1583    3.9977 H   0  0  0  0  0  0  0  0  0  0  0  0
    7.7708    8.2591    4.4387 H   0  0  0  0  0  0  0  0  0  0  0  0
    7.5659   10.4042    3.5301 H   0  0  0  0  0  0  0  0  0  0  0  0
    9.6506    9.6683    4.5080 H   0  0  0  0  0  0  0  0  0  0  0  0
    8.7933   11.4964   -1.7699 H   0  0  0  0  0  0  0  0  0  0  0  0
   11.4729   10.9857   -3.1089 H   0  0  0  0  0  0  0  0  0  0  0  0
    9.8939   10.9857   -4.6031 H   0  0  0  0  0  0  0  0  0  0  0  0
   10.7142    8.9573   -4.1583 H   0  0  0  0  0  0  0  0  0  0  0  0
    7.8106    8.5880   -4.3089 H   0  0  0  0  0  0  0  0  0  0  0  0
    7.1242   10.7866   -4.1779 H   0  0  0  0  0  0  0  0  0  0  0  0
    6.0906    9.1715   -2.9902 H   0  0  0  0  0  0  0  0  0  0  0  0
   14.8859   12.7691    4.8720 H   0  0  0  0  0  0  0  0  0  0  0  0
   13.6060   10.8012    5.2101 H   0  0  0  0  0  0  0  0  0  0  0  0
   10.7840   12.5789    5.3876 H   0  0  0  0  0  0  0  0  0  0  0  0
   11.1241   15.8749    6.2319 H   0  0  0  0  0  0  0  0  0  0  0  0
   11.5267   15.4698    3.9326 H   0  0  0  0  0  0  0  0  0  0  0  0
   13.3844   15.8039    5.4279 H   0  0  0  0  0  0  0  0  0  0  0  0
   11.4197   13.5604    8.5294 H   0  0  0  0  0  0  0  0  0  0  0  0
   13.7821   13.4445    8.1064 H   0  0  0  0  0  0  0  0  0  0  0  0
   12.4403   11.4499    8.0759 H   0  0  0  0  0  0  0  0  0  0  0  0
   18.3530    8.7034    0.3030 H   0  0  0  0  0  0  0  0  0  0  0  0
   17.7603   10.1305    1.8986 H   0  0  0  0  0  0  0  0  0  0  0  0
   18.2786   11.0971   -0.1124 H   0  0  0  0  0  0  0  0  0  0  0  0
   12.9258    6.9518   -4.1169 H   0  0  0  0  0  0  0  0  0  0  0  0
   15.4842    5.3866   -5.3419 H   0  0  0  0  0  0  0  0  0  0  0  0
   14.6187    4.5429   -3.3293 H   0  0  0  0  0  0  0  0  0  0  0  0
   16.6845    5.6640   -3.3310 H   0  0  0  0  0  0  0  0  0  0  0  0
   15.6119    9.1990   -5.2096 H   0  0  0  0  0  0  0  0  0  0  0  0
   10.2052    3.6783   -0.5664 H   0  0  0  0  0  0  0  0  0  0  0  0
    5.4034    5.2738    1.0716 H   0  0  0  0  0  0  0  0  0  0  0  0
    4.3795    7.1828    2.0780 H   0  0  0  0  0  0  0  0  0  0  0  0
    6.5463    6.7246    2.5509 H   0  0  0  0  0  0  0  0  0  0  0  0
    2.8944    8.5251   -2.5576 H   0  0  0  0  0  0  0  0  0  0  0  0
    1.1216    9.6906    1.0193 H   0  0  0  0  0  0  0  0  0  0  0  0
    0.0000    9.3423   -1.0713 H   0  0  0  0  0  0  0  0  0  0  0  0
    1.4790   11.1765   -0.8073 H   0  0  0  0  0  0  0  0  0  0  0  0
    1.9036    6.4343    0.8352 H   0  0  0  0  0  0  0  0  0  0  0  0
    3.1878    5.5570   -1.0126 H   0  0  0  0  0  0  0  0  0  0  0  0
    0.9717    6.2704   -1.3317 H   0  0  0  0  0  0  0  0  0  0  0  0
    6.6314    3.0703   -2.4766 H   0  0  0  0  0  0  0  0  0  0  0  0
    7.0332    2.9197   -0.1025 H   0  0  0  0  0  0  0  0  0  0  0  0
    7.3587    0.0000   -2.3450 H   0  0  0  0  0  0  0  0  0  0  0  0
    8.8320    0.2974   -0.4680 H   0  0  0  0  0  0  0  0  0  0  0  0
    9.8787    0.3504   -4.2641 H   0  0  0  0  0  0  0  0  0  0  0  0
   11.2534    0.6807   -2.3176 H   0  0  0  0  0  0  0  0  0  0  0  0
   11.5122    3.5971   -3.6512 H   0  0  0  0  0  0  0  0  0  0  0  0
    9.3017    3.4601   -4.5781 H   0  0  0  0  0  0  0  0  0  0  0  0
   17.9312    9.3289   -2.2188 H   0  0  0  0  0  0  0  0  0  0  0  0
   16.8253    8.3139   -3.3616 H   0  0  0  0  0  0  0  0  0  0  0  0
  1  2  1  1  0  0  0
  1 27  1  0  0  0  0
  1 28  1  0  0  0  0
  1 79  1  6  0  0  0
  2  3  1  0  0  0  0
  2 80  1  1  0  0  0
  3  4  1  1  0  0  0
  3 73  2  0  0  0  0
  4  5  1  0  0  0  0
  4 70  1  0  0  0  0
  4 81  1  1  0  0  0
  5  6  1  6  0  0  0
  5 69  1  1  0  0  0
  6  7  1  0  0  0  0
  6 68  2  0  0  0  0
  7  8  1  0  0  0  0
  7 67  1  0  0  0  0
  7 82  1  6  0  0  0
  8  9  1  0  0  0  0
  9 10  1  0  0  0  0
  9 66  2  0  0  0  0
 10 11  1  1  0  0  0
 10 63  1  6  0  0  0
 10 83  1  6  0  0  0
 11 12  1  1  0  0  0
 11 62  1  0  0  0  0
 12 13  1  1  0  0  0
 12 61  2  0  0  0  0
 13 14  1  0  0  0  0
 13 57  1  1  0  0  0
 13 84  1  0  0  0  0
 14 15  1  6  0  0  0
 14 85  1  0  0  0  0
 15 16  1  6  0  0  0
 15 56  2  0  0  0  0
 16 17  1  6  0  0  0
 16 53  1  6  0  0  0
 16 86  1  0  0  0  0
 17 18  1  0  0  0  0
 17 52  1  1  0  0  0
 18 19  1  1  0  0  0
 18 51  2  0  0  0  0
 19 20  1  0  0  0  0
 19 47  1  1  0  0  0
 19 87  1  6  0  0  0
 20 21  1  6  0  0  0
 20 88  1  1  0  0  0
 21 22  1  6  0  0  0
 21 46  2  0  0  0  0
 22 23  1  6  0  0  0
 22 45  1  0  0  0  0
 22 89  1  0  0  0  0
 23 24  1  0  0  0  0
 23 44  1  6  0  0  0
 24 25  1  6  0  0  0
 24 43  2  0  0  0  0
 25 26  1  0  0  0  0
 25 36  1  0  0  0  0
 25 90  1  6  0  0  0
 26 27  1  1  0  0  0
 26 91  1  6  0  0  0
 27 35  2  0  0  0  0
 28 29  1  6  0  0  0
 28 92  1  1  0  0  0
 28 93  1  0  0  0  0
 29 30  2  0  0  0  0
 29 34  1  0  0  0  0
 30 31  1  6  0  0  0
 30 94  1  0  0  0  0
 31 32  2  0  0  0  0
 31 95  1  6  0  0  0
 32 33  1  1  0  0  0
 32 96  1  6  0  0  0
 33 34  2  0  0  0  0
 33 97  1  0  0  0  0
 34 98  1  1  0  0  0
 36 37  1  1  0  0  0
 36 99  1  6  0  0  0
 36100  1  0  0  0  0
 37 38  2  0  0  0  0
 37 42  1  0  0  0  0
 38 39  1  1  0  0  0
 38101  1  0  0  0  0
 39 40  2  0  0  0  0
 39102  1  1  0  0  0
 40 41  1  6  0  0  0
 40103  1  1  0  0  0
 41 42  2  0  0  0  0
 41104  1  0  0  0  0
 42105  1  6  0  0  0
 44 78  1  0  0  0  0
 44106  1  0  0  0  0
 44107  1  6  0  0  0
 45 78  1  6  0  0  0
 45108  1  0  0  0  0
 45109  1  1  0  0  0
 47 48  1  1  0  0  0
 47 50  1  0  0  0  0
 47110  1  0  0  0  0
 48 49  1  1  0  0  0
 48111  1  0  0  0  0
 48112  1  0  0  0  0
 49113  1  1  0  0  0
 49114  1  1  0  0  0
 49115  1  0  0  0  0
 50116  1  1  0  0  0
 50117  1  1  0  0  0
 50118  1  6  0  0  0
 52119  1  1  0  0  0
 52120  1  0  0  0  0
 52121  1  1  0  0  0
 53 54  1  6  0  0  0
 53 55  1  6  0  0  0
 53122  1  0  0  0  0
 54123  1  0  0  0  0
 54124  1  6  0  0  0
 54125  1  6  0  0  0
 55126  1  6  0  0  0
 55127  1  6  0  0  0
 55128  1  0  0  0  0
 57 58  1  1  0  0  0
 57129  1  0  0  0  0
 57130  1  0  0  0  0
 58 59  1  0  0  0  0
 58 60  1  1  0  0  0
 58131  1  0  0  0  0
 59132  1  1  0  0  0
 59133  1  6  0  0  0
 59134  1  0  0  0  0
 60135  1  1  0  0  0
 60136  1  0  0  0  0
 60137  1  0  0  0  0
 62138  1  0  0  0  0
 62139  1  1  0  0  0
 62140  1  0  0  0  0
 63 64  1  0  0  0  0
 63 65  1  6  0  0  0
 63141  1  0  0  0  0
 64142  1  6  0  0  0
 64143  1  0  0  0  0
 64144  1  0  0  0  0
 65145  1  0  0  0  0
 67 74  1  0  0  0  0
 67 77  1  6  0  0  0
 67146  1  1  0  0  0
 69147  1  0  0  0  0
 69148  1  0  0  0  0
 69149  1  1  0  0  0
 70 71  1  0  0  0  0
 70 72  1  0  0  0  0
 70150  1  6  0  0  0
 71151  1  1  0  0  0
 71152  1  0  0  0  0
 71153  1  0  0  0  0
 72154  1  1  0  0  0
 72155  1  0  0  0  0
 72156  1  6  0  0  0
 74 75  1  0  0  0  0
 74157  1  6  0  0  0
 74158  1  1  0  0  0
 75 76  1  6  0  0  0
 75159  1  0  0  0  0
 75160  1  1  0  0  0
 76 77  1  0  0  0  0
 76161  1  6  0  0  0
 76162  1  1  0  0  0
 77163  1  0  0  0  0
 77164  1  6  0  0  0
 78165  1  0  0  0  0
 78166  1  6  0  0  0
M  END
>  <Formula> (234)
C59H88N8O11

>  <Name> (234)
5,8-DIBENZYL-26-SEC-BUTYL-14-CYCLOPENTYL-17-(1-HYDROXY-ETHYL)-20-ISOBUTYL-11,23-DIISOPROPYL-12,18,24-TRIMETHYL-OCTADECAHYDRO-15-OXA-3A,6,9,12,18,21,24,27-OCTAAZA-CYCLOPENTACYCLOHEPTACOSENE-4,7,10,13,16,19,22,25,28-NONAONE

>  <Compound classification> (234)
AB-Pept

>  <Microorganism> (234)
Candida tropicalis

>  <Microorganism type> (234)
C90

>  <Microorganism classification> (234)
yeast

>  <MIC> (234)
0.5

>  <Annotation> (234)
mean MIC of 14 Candida strains

>  <Method abbreviation> (234)
SDT

>  <Ref-Nr> (234)
6789

>  <Marker> (234)
0

>  <Method> (234)
Serial dilution test; Inoculum size: 3x10E3 CFU/ml; Medium: Yeast nitrogen broth; pH: 5.4; Incubation-temperature: 37 degrees Centigrade; Incubation-time: 48h; Solubility enhancer: various vehicles

>  <Reference> (234)
Cooper, A.B., Saksena, A.K., Rane, D.F., Jao, E., Ginjavallabhan, V.M., Ganguly, A., Desai, J.J., Wang, J.: Anti-Fungal Agents; US 5,739,104 (1998)

>  <mol_id> (234)
3561

>  <MolWeight> (234)
1085.39

>  <Nickname> (234)
Cyclodepsipeptide VI

$$$$

csChmFindW11180110282D

 94 97  0  0  0  0  0  0  0  0999 V2000
   17.2063    4.5635   -0.9970 C   0  0  0  0  0  0  0  0  0  0  0  0
   17.1022    2.5565   -1.2147 C   0  0  0  0  0  0  0  0  0  0  0  0
   18.2476    1.6257    0.1709 C   0  0  0  0  0  0  0  0  0  0  0  0
   20.1368    2.3448    0.2588 C   0  0  0  0  0  0  0  0  0  0  0  0
   20.2395    4.3548    0.5334 C   0  0  0  0  0  0  0  0  0  0  0  0
   19.1166    5.2180   -0.9315 C   0  0  0  0  0  0  0  0  0  0  0  0
   21.2299    1.3487    1.6424 C   0  0  0  0  0  0  0  0  0  0  0  0
   22.9583    2.2685    2.1299 C   0  0  0  0  0  0  0  0  0  0  0  0
   23.5748    3.4714    0.6420 C   0  0  0  0  0  0  0  0  0  0  0  0
   22.2018    4.9565    0.3336 C   0  0  0  0  0  0  0  0  0  0  0  0
   25.4492    4.2484    0.6109 C   0  0  0  0  0  0  0  0  0  0  0  0
   25.8636    5.8735    1.7570 C   0  0  0  0  0  0  0  0  0  0  0  0
   24.5345    7.2924    1.1847 C   0  0  0  0  0  0  0  0  0  0  0  0
   22.6287    6.6487    1.3701 C   0  0  0  0  0  0  0  0  0  0  0  0
   27.0629    3.0661    0.8149 C   0  0  0  0  0  0  0  0  0  0  0  0
   28.5944    4.3823    0.9508 C   0  0  0  0  0  0  0  0  0  0  0  0
   27.8064    6.2449    1.2183 C   0  0  0  0  0  0  0  0  0  0  0  0
   25.7583    5.4998    3.7453 C   0  0  0  0  0  0  0  0  0  0  0  0
   19.4412    4.8728    2.3331 C   0  0  0  0  0  0  0  0  0  0  0  0
   28.9771    7.4241    2.3996 C   0  0  0  0  0  0  0  0  0  0  0  0
   15.3049    1.8790   -1.0181 N   0  0  0  0  0  0  0  0  0  0  0  0
   28.2111    9.2791    2.6570 C   0  0  0  0  0  0  0  0  0  0  0  0
   30.8653    7.5752    1.6531 C   0  0  0  0  0  0  0  0  0  0  0  0
   32.2252    8.3896    2.9112 C   0  0  0  0  0  0  0  0  0  0  0  0
   32.2683    7.5328    4.7107 C   0  0  0  0  0  0  0  0  0  0  0  0
   14.0232    2.5732   -2.2721 C   0  0  0  0  0  0  0  0  0  0  0  0
   12.2187    1.7262   -1.9413 C   0  0  0  0  0  0  0  0  0  0  0  0
   10.7929    2.4652   -3.1655 C   0  0  0  0  0  0  0  0  0  0  0  0
    9.0864    1.6815   -2.7459 N   0  0  0  0  0  0  0  0  0  0  0  0
    7.6630    2.3758   -3.8384 C   0  0  0  0  0  0  0  0  0  0  0  0
    5.8990    1.5596   -3.2891 C   0  0  0  0  0  0  0  0  0  0  0  0
    4.3643    2.2616   -4.3987 C   0  0  0  0  0  0  0  0  0  0  0  0
    2.6010    1.4566   -3.8387 C   0  0  0  0  0  0  0  0  0  0  0  0
    1.1548    2.1403   -4.9266 N   0  0  0  0  0  0  0  0  0  0  0  0
   32.0341    8.2549    6.1054 O   0  0  0  0  0  0  0  0  0  0  0  0
   32.6407    5.8062    4.6095 O   0  0  0  0  0  0  0  0  0  0  0  0
   24.2148    0.9373    2.5444 O   0  0  0  0  0  0  0  0  0  0  0  0
   16.4779    4.9737    0.2044 H   0  0  0  0  0  0  0  0  0  0  0  0
   16.5483    5.2297   -2.1262 H   0  0  0  0  0  0  0  0  0  0  0  0
   17.6059    2.1980   -2.5480 H   0  0  0  0  0  0  0  0  0  0  0  0
   18.2920    0.1903   -0.1342 H   0  0  0  0  0  0  0  0  0  0  0  0
   17.6063    1.7296    1.4824 H   0  0  0  0  0  0  0  0  0  0  0  0
   20.7167    2.0682   -1.0659 H   0  0  0  0  0  0  0  0  0  0  0  0
   19.1283    6.6754   -0.7710 H   0  0  0  0  0  0  0  0  0  0  0  0
   19.7140    4.9401   -2.2429 H   0  0  0  0  0  0  0  0  0  0  0  0
   21.5070    0.0093    1.1100 H   0  0  0  0  0  0  0  0  0  0  0  0
   20.4451    1.1414    2.8633 H   0  0  0  0  0  0  0  0  0  0  0  0
   22.7770    3.0441    3.3524 H   0  0  0  0  0  0  0  0  0  0  0  0
   23.5656    2.5727   -0.5287 H   0  0  0  0  0  0  0  0  0  0  0  0
   22.4048    5.3301   -1.0772 H   0  0  0  0  0  0  0  0  0  0  0  0
   25.5760    4.7343   -0.7817 H   0  0  0  0  0  0  0  0  0  0  0  0
   24.7637    7.6797   -0.2106 H   0  0  0  0  0  0  0  0  0  0  0  0
   24.6961    8.5111    1.9753 H   0  0  0  0  0  0  0  0  0  0  0  0
   22.3721    6.4555    2.7957 H   0  0  0  0  0  0  0  0  0  0  0  0
   21.7325    7.7243    0.9285 H   0  0  0  0  0  0  0  0  0  0  0  0
   27.2153    2.1261   -0.2972 H   0  0  0  0  0  0  0  0  0  0  0  0
   27.0070    2.2894    2.0501 H   0  0  0  0  0  0  0  0  0  0  0  0
   29.4155    4.3376   -0.2631 H   0  0  0  0  0  0  0  0  0  0  0  0
   29.4488    3.9982    2.0787 H   0  0  0  0  0  0  0  0  0  0  0  0
   27.7729    6.8928   -0.1024 H   0  0  0  0  0  0  0  0  0  0  0  0
   25.9936    6.7061    4.5338 H   0  0  0  0  0  0  0  0  0  0  0  0
   26.7348    4.5031    4.1781 H   0  0  0  0  0  0  0  0  0  0  0  0
   24.4569    5.0119    4.1731 H   0  0  0  0  0  0  0  0  0  0  0  0
   19.2817    6.3204    2.4647 H   0  0  0  0  0  0  0  0  0  0  0  0
   20.2366    4.4084    3.4644 H   0  0  0  0  0  0  0  0  0  0  0  0
   18.1088    4.3253    2.5555 H   0  0  0  0  0  0  0  0  0  0  0  0
   29.0704    6.7822    3.7158 H   0  0  0  0  0  0  0  0  0  0  0  0
   14.8773    2.1506    0.2241 H   0  0  0  0  0  0  0  0  0  0  0  0
   29.1014   10.1420    3.4293 H   0  0  0  0  0  0  0  0  0  0  0  0
   26.9669    9.2677    3.4175 H   0  0  0  0  0  0  0  0  0  0  0  0
   27.9630    9.9330    1.3715 H   0  0  0  0  0  0  0  0  0  0  0  0
   30.8308    8.3452    0.4054 H   0  0  0  0  0  0  0  0  0  0  0  0
   31.3770    6.2517    1.2908 H   0  0  0  0  0  0  0  0  0  0  0  0
   31.9735    9.8213    3.0834 H   0  0  0  0  0  0  0  0  0  0  0  0
   33.5686    8.2908    2.3303 H   0  0  0  0  0  0  0  0  0  0  0  0
   14.4672    2.3015   -3.6422 H   0  0  0  0  0  0  0  0  0  0  0  0
   13.8847    4.0196   -2.0927 H   0  0  0  0  0  0  0  0  0  0  0  0
   11.8239    1.9593   -0.5467 H   0  0  0  0  0  0  0  0  0  0  0  0
   12.3179    0.2739   -2.1266 H   0  0  0  0  0  0  0  0  0  0  0  0
   11.1410    2.1822   -4.5614 H   0  0  0  0  0  0  0  0  0  0  0  0
   10.7109    3.9184   -2.9895 H   0  0  0  0  0  0  0  0  0  0  0  0
    8.8017    1.9127   -1.4558 H   0  0  0  0  0  0  0  0  0  0  0  0
    7.9333    2.0761   -5.2481 H   0  0  0  0  0  0  0  0  0  0  0  0
    7.5923    3.8311   -3.6752 H   0  0  0  0  0  0  0  0  0  0  0  0
    5.6508    1.8516   -1.8728 H   0  0  0  0  0  0  0  0  0  0  0  0
    5.9759    0.1009   -3.4272 H   0  0  0  0  0  0  0  0  0  0  0  0
    4.6061    1.9619   -5.8142 H   0  0  0  0  0  0  0  0  0  0  0  0
    4.2910    3.7208   -4.2663 H   0  0  0  0  0  0  0  0  0  0  0  0
    2.3132    1.7632   -2.4348 H   0  0  0  0  0  0  0  0  0  0  0  0
    2.6349    0.0000   -3.9925 H   0  0  0  0  0  0  0  0  0  0  0  0
    0.0000    1.5326   -4.6202 H   0  0  0  0  0  0  0  0  0  0  0  0
    1.3690    1.8804   -6.2239 H   0  0  0  0  0  0  0  0  0  0  0  0
   32.6682    5.3882    5.8165 H   0  0  0  0  0  0  0  0  0  0  0  0
   25.0505    1.4401    3.3055 H   0  0  0  0  0  0  0  0  0  0  0  0
  1  2  1  0  0  0  0
  1  6  1  0  0  0  0
  1 38  1  1  0  0  0
  1 39  1  6  0  0  0
  2  3  1  1  0  0  0
  2 21  1  0  0  0  0
  2 40  1  6  0  0  0
  3  4  1  0  0  0  0
  3 41  1  0  0  0  0
  3 42  1  1  0  0  0
  4  5  1  0  0  0  0
  4  7  1  1  0  0  0
  4 43  1  6  0  0  0
  5  6  1  6  0  0  0
  5 10  1  0  0  0  0
  5 19  1  1  0  0  0
  6 44  1  0  0  0  0
  6 45  1  6  0  0  0
  7  8  1  0  0  0  0
  7 46  1  0  0  0  0
  7 47  1  1  0  0  0
  8  9  1  6  0  0  0
  8 37  1  0  0  0  0
  8 48  1  1  0  0  0
  9 10  1  0  0  0  0
  9 11  1  0  0  0  0
  9 49  1  6  0  0  0
 10 14  1  1  0  0  0
 10 50  1  6  0  0  0
 11 12  1  1  0  0  0
 11 15  1  0  0  0  0
 11 51  1  6  0  0  0
 12 13  1  0  0  0  0
 12 17  1  0  0  0  0
 12 18  1  1  0  0  0
 13 14  1  0  0  0  0
 13 52  1  6  0  0  0
 13 53  1  1  0  0  0
 14 54  1  1  0  0  0
 14 55  1  0  0  0  0
 15 16  1  0  0  0  0
 15 56  1  6  0  0  0
 15 57  1  1  0  0  0
 16 17  1  0  0  0  0
 16 58  1  6  0  0  0
 16 59  1  1  0  0  0
 17 20  1  1  0  0  0
 17 60  1  6  0  0  0
 18 61  1  1  0  0  0
 18 62  1  0  0  0  0
 18 63  1  0  0  0  0
 19 64  1  0  0  0  0
 19 65  1  1  0  0  0
 19 66  1  0  0  0  0
 20 22  1  0  0  0  0
 20 23  1  0  0  0  0
 20 67  1  1  0  0  0
 21 26  1  6  0  0  0
 21 68  1  1  0  0  0
 22 69  1  1  0  0  0
 22 70  1  1  0  0  0
 22 71  1  6  0  0  0
 23 24  1  1  0  0  0
 23 72  1  6  0  0  0
 23 73  1  0  0  0  0
 24 25  1  1  0  0  0
 24 74  1  0  0  0  0
 24 75  1  0  0  0  0
 25 35  2  0  0  0  0
 25 36  1  0  0  0  0
 26 27  1  0  0  0  0
 26 76  1  6  0  0  0
 26 77  1  0  0  0  0
 27 28  1  6  0  0  0
 27 78  1  1  0  0  0
 27 79  1  0  0  0  0
 28 29  1  0  0  0  0
 28 80  1  6  0  0  0
 28 81  1  0  0  0  0
 29 30  1  6  0  0  0
 29 82  1  1  0  0  0
 30 31  1  0  0  0  0
 30 83  1  6  0  0  0
 30 84  1  0  0  0  0
 31 32  1  6  0  0  0
 31 85  1  1  0  0  0
 31 86  1  0  0  0  0
 32 33  1  0  0  0  0
 32 87  1  6  0  0  0
 32 88  1  0  0  0  0
 33 34  1  6  0  0  0
 33 89  1  1  0  0  0
 33 90  1  0  0  0  0
 34 91  1  0  0  0  0
 34 92  1  6  0  0  0
 36 93  1  1  0  0  0
 37 94  1  1  0  0  0
M  END
>  <Formula> (235)
C31H57N3O3

>  <Name> (235)
4-{3-[3-(4-AMINO-BUTYLAMINO)-PROPYLAMINO]-7-HYDROXY-10,13-DIMETHYL-HEXADECAHYDRO-CYCLOPENTA[A]PHENANTHREN-17-YL}-PENTANOIC ACID

>  <Compound classification> (235)
AB-Ster

>  <Microorganism> (235)
Eschericia coli

>  <Microorganism type> (235)
ATCC 25922

>  <Microorganism classification> (235)
Bac-

>  <MIC> (235)
64

>  <Method abbreviation> (235)
SDT

>  <Ref-Nr> (235)
6791

>  <Marker> (235)
0

>  <Method> (235)
Serial dilution test; Inoculum size: 1-5 x 10E5 CFU/ml; Medium: Mueller-Hinton broth and yeast assay broth; pH: ---; Incubation-temperature: 30(yeast), 35-37 degrees Centigrade; Incubation-time: 18-24h; Solubility enhancer: not given  (method from US 5,637,691, 1993)

>  <Reference> (235)
Zasloff, M., Kinney, W., Jones, S.: Aminosterol Ester Compounds; US 5,856,535 (1999)

>  <mol_id> (235)
3517

>  <MolWeight> (235)
519.80

>  <Nickname> (235)
Aminosterol 381, S-stereoisomer

$$$$

csChmFindW11180110282D

 94 97  0  0  0  0  0  0  0  0999 V2000
   17.2063    4.5635   -0.9970 C   0  0  0  0  0  0  0  0  0  0  0  0
   17.1022    2.5565   -1.2147 C   0  0  0  0  0  0  0  0  0  0  0  0
   18.2476    1.6257    0.1709 C   0  0  0  0  0  0  0  0  0  0  0  0
   20.1368    2.3448    0.2588 C   0  0  0  0  0  0  0  0  0  0  0  0
   20.2395    4.3548    0.5334 C   0  0  0  0  0  0  0  0  0  0  0  0
   19.1166    5.2180   -0.9315 C   0  0  0  0  0  0  0  0  0  0  0  0
   21.2299    1.3487    1.6424 C   0  0  0  0  0  0  0  0  0  0  0  0
   22.9583    2.2685    2.1299 C   0  0  0  0  0  0  0  0  0  0  0  0
   23.5748    3.4714    0.6420 C   0  0  0  0  0  0  0  0  0  0  0  0
   22.2018    4.9565    0.3336 C   0  0  0  0  0  0  0  0  0  0  0  0
   25.4492    4.2484    0.6109 C   0  0  0  0  0  0  0  0  0  0  0  0
   25.8636    5.8735    1.7570 C   0  0  0  0  0  0  0  0  0  0  0  0
   24.5345    7.2924    1.1847 C   0  0  0  0  0  0  0  0  0  0  0  0
   22.6287    6.6487    1.3701 C   0  0  0  0  0  0  0  0  0  0  0  0
   27.0629    3.0661    0.8149 C   0  0  0  0  0  0  0  0  0  0  0  0
   28.5944    4.3823    0.9508 C   0  0  0  0  0  0  0  0  0  0  0  0
   27.8064    6.2449    1.2183 C   0  0  0  0  0  0  0  0  0  0  0  0
   25.7583    5.4998    3.7453 C   0  0  0  0  0  0  0  0  0  0  0  0
   19.4412    4.8728    2.3331 C   0  0  0  0  0  0  0  0  0  0  0  0
   28.9771    7.4241    2.3996 C   0  0  0  0  0  0  0  0  0  0  0  0
   15.3049    1.8790   -1.0181 N   0  0  0  0  0  0  0  0  0  0  0  0
   28.2111    9.2791    2.6570 C   0  0  0  0  0  0  0  0  0  0  0  0
   30.8653    7.5752    1.6531 C   0  0  0  0  0  0  0  0  0  0  0  0
   32.2252    8.3896    2.9112 C   0  0  0  0  0  0  0  0  0  0  0  0
   32.2683    7.5328    4.7107 C   0  0  0  0  0  0  0  0  0  0  0  0
   14.0232    2.5732   -2.2721 C   0  0  0  0  0  0  0  0  0  0  0  0
   12.2187    1.7262   -1.9413 C   0  0  0  0  0  0  0  0  0  0  0  0
   10.7929    2.4652   -3.1655 C   0  0  0  0  0  0  0  0  0  0  0  0
    9.0864    1.6815   -2.7459 N   0  0  0  0  0  0  0  0  0  0  0  0
    7.6630    2.3758   -3.8384 C   0  0  0  0  0  0  0  0  0  0  0  0
    5.8990    1.5596   -3.2891 C   0  0  0  0  0  0  0  0  0  0  0  0
    4.3643    2.2616   -4.3987 C   0  0  0  0  0  0  0  0  0  0  0  0
    2.6010    1.4566   -3.8387 C   0  0  0  0  0  0  0  0  0  0  0  0
    1.1548    2.1403   -4.9266 N   0  0  0  0  0  0  0  0  0  0  0  0
   32.0341    8.2549    6.1054 O   0  0  0  0  0  0  0  0  0  0  0  0
   32.6407    5.8062    4.6095 O   0  0  0  0  0  0  0  0  0  0  0  0
   24.2148    0.9373    2.5444 O   0  0  0  0  0  0  0  0  0  0  0  0
   16.4779    4.9737    0.2044 H   0  0  0  0  0  0  0  0  0  0  0  0
   16.5483    5.2297   -2.1262 H   0  0  0  0  0  0  0  0  0  0  0  0
   17.6059    2.1980   -2.5480 H   0  0  0  0  0  0  0  0  0  0  0  0
   18.2920    0.1903   -0.1342 H   0  0  0  0  0  0  0  0  0  0  0  0
   17.6063    1.7296    1.4824 H   0  0  0  0  0  0  0  0  0  0  0  0
   20.7167    2.0682   -1.0659 H   0  0  0  0  0  0  0  0  0  0  0  0
   19.1283    6.6754   -0.7710 H   0  0  0  0  0  0  0  0  0  0  0  0
   19.7140    4.9401   -2.2429 H   0  0  0  0  0  0  0  0  0  0  0  0
   21.5070    0.0093    1.1100 H   0  0  0  0  0  0  0  0  0  0  0  0
   20.4451    1.1414    2.8633 H   0  0  0  0  0  0  0  0  0  0  0  0
   22.7770    3.0441    3.3524 H   0  0  0  0  0  0  0  0  0  0  0  0
   23.5656    2.5727   -0.5287 H   0  0  0  0  0  0  0  0  0  0  0  0
   22.4048    5.3301   -1.0772 H   0  0  0  0  0  0  0  0  0  0  0  0
   25.5760    4.7343   -0.7817 H   0  0  0  0  0  0  0  0  0  0  0  0
   24.7637    7.6797   -0.2106 H   0  0  0  0  0  0  0  0  0  0  0  0
   24.6961    8.5111    1.9753 H   0  0  0  0  0  0  0  0  0  0  0  0
   22.3721    6.4555    2.7957 H   0  0  0  0  0  0  0  0  0  0  0  0
   21.7325    7.7243    0.9285 H   0  0  0  0  0  0  0  0  0  0  0  0
   27.2153    2.1261   -0.2972 H   0  0  0  0  0  0  0  0  0  0  0  0
   27.0070    2.2894    2.0501 H   0  0  0  0  0  0  0  0  0  0  0  0
   29.4155    4.3376   -0.2631 H   0  0  0  0  0  0  0  0  0  0  0  0
   29.4488    3.9982    2.0787 H   0  0  0  0  0  0  0  0  0  0  0  0
   27.7729    6.8928   -0.1024 H   0  0  0  0  0  0  0  0  0  0  0  0
   25.9936    6.7061    4.5338 H   0  0  0  0  0  0  0  0  0  0  0  0
   26.7348    4.5031    4.1781 H   0  0  0  0  0  0  0  0  0  0  0  0
   24.4569    5.0119    4.1731 H   0  0  0  0  0  0  0  0  0  0  0  0
   19.2817    6.3204    2.4647 H   0  0  0  0  0  0  0  0  0  0  0  0
   20.2366    4.4084    3.4644 H   0  0  0  0  0  0  0  0  0  0  0  0
   18.1088    4.3253    2.5555 H   0  0  0  0  0  0  0  0  0  0  0  0
   29.0704    6.7822    3.7158 H   0  0  0  0  0  0  0  0  0  0  0  0
   14.8773    2.1506    0.2241 H   0  0  0  0  0  0  0  0  0  0  0  0
   29.1014   10.1420    3.4293 H   0  0  0  0  0  0  0  0  0  0  0  0
   26.9669    9.2677    3.4175 H   0  0  0  0  0  0  0  0  0  0  0  0
   27.9630    9.9330    1.3715 H   0  0  0  0  0  0  0  0  0  0  0  0
   30.8308    8.3452    0.4054 H   0  0  0  0  0  0  0  0  0  0  0  0
   31.3770    6.2517    1.2908 H   0  0  0  0  0  0  0  0  0  0  0  0
   31.9735    9.8213    3.0834 H   0  0  0  0  0  0  0  0  0  0  0  0
   33.5686    8.2908    2.3303 H   0  0  0  0  0  0  0  0  0  0  0  0
   14.4672    2.3015   -3.6422 H   0  0  0  0  0  0  0  0  0  0  0  0
   13.8847    4.0196   -2.0927 H   0  0  0  0  0  0  0  0  0  0  0  0
   11.8239    1.9593   -0.5467 H   0  0  0  0  0  0  0  0  0  0  0  0
   12.3179    0.2739   -2.1266 H   0  0  0  0  0  0  0  0  0  0  0  0
   11.1410    2.1822   -4.5614 H   0  0  0  0  0  0  0  0  0  0  0  0
   10.7109    3.9184   -2.9895 H   0  0  0  0  0  0  0  0  0  0  0  0
    8.8017    1.9127   -1.4558 H   0  0  0  0  0  0  0  0  0  0  0  0
    7.9333    2.0761   -5.2481 H   0  0  0  0  0  0  0  0  0  0  0  0
    7.5923    3.8311   -3.6752 H   0  0  0  0  0  0  0  0  0  0  0  0
    5.6508    1.8516   -1.8728 H   0  0  0  0  0  0  0  0  0  0  0  0
    5.9759    0.1009   -3.4272 H   0  0  0  0  0  0  0  0  0  0  0  0
    4.6061    1.9619   -5.8142 H   0  0  0  0  0  0  0  0  0  0  0  0
    4.2910    3.7208   -4.2663 H   0  0  0  0  0  0  0  0  0  0  0  0
    2.3132    1.7632   -2.4348 H   0  0  0  0  0  0  0  0  0  0  0  0
    2.6349    0.0000   -3.9925 H   0  0  0  0  0  0  0  0  0  0  0  0
    0.0000    1.5326   -4.6202 H   0  0  0  0  0  0  0  0  0  0  0  0
    1.3690    1.8804   -6.2239 H   0  0  0  0  0  0  0  0  0  0  0  0
   32.6682    5.3882    5.8165 H   0  0  0  0  0  0  0  0  0  0  0  0
   25.0505    1.4401    3.3055 H   0  0  0  0  0  0  0  0  0  0  0  0
  1  2  1  0  0  0  0
  1  6  1  0  0  0  0
  1 38  1  1  0  0  0
  1 39  1  6  0  0  0
  2  3  1  1  0  0  0
  2 21  1  0  0  0  0
  2 40  1  6  0  0  0
  3  4  1  0  0  0  0
  3 41  1  0  0  0  0
  3 42  1  1  0  0  0
  4  5  1  0  0  0  0
  4  7  1  1  0  0  0
  4 43  1  6  0  0  0
  5  6  1  6  0  0  0
  5 10  1  0  0  0  0
  5 19  1  1  0  0  0
  6 44  1  0  0  0  0
  6 45  1  6  0  0  0
  7  8  1  0  0  0  0
  7 46  1  0  0  0  0
  7 47  1  1  0  0  0
  8  9  1  6  0  0  0
  8 37  1  0  0  0  0
  8 48  1  1  0  0  0
  9 10  1  0  0  0  0
  9 11  1  0  0  0  0
  9 49  1  6  0  0  0
 10 14  1  1  0  0  0
 10 50  1  6  0  0  0
 11 12  1  1  0  0  0
 11 15  1  0  0  0  0
 11 51  1  6  0  0  0
 12 13  1  0  0  0  0
 12 17  1  0  0  0  0
 12 18  1  1  0  0  0
 13 14  1  0  0  0  0
 13 52  1  6  0  0  0
 13 53  1  1  0  0  0
 14 54  1  1  0  0  0
 14 55  1  0  0  0  0
 15 16  1  0  0  0  0
 15 56  1  6  0  0  0
 15 57  1  1  0  0  0
 16 17  1  0  0  0  0
 16 58  1  6  0  0  0
 16 59  1  1  0  0  0
 17 20  1  1  0  0  0
 17 60  1  6  0  0  0
 18 61  1  1  0  0  0
 18 62  1  0  0  0  0
 18 63  1  0  0  0  0
 19 64  1  0  0  0  0
 19 65  1  1  0  0  0
 19 66  1  0  0  0  0
 20 22  1  0  0  0  0
 20 23  1  0  0  0  0
 20 67  1  1  0  0  0
 21 26  1  6  0  0  0
 21 68  1  1  0  0  0
 22 69  1  1  0  0  0
 22 70  1  1  0  0  0
 22 71  1  6  0  0  0
 23 24  1  1  0  0  0
 23 72  1  6  0  0  0
 23 73  1  0  0  0  0
 24 25  1  1  0  0  0
 24 74  1  0  0  0  0
 24 75  1  0  0  0  0
 25 35  2  0  0  0  0
 25 36  1  0  0  0  0
 26 27  1  0  0  0  0
 26 76  1  6  0  0  0
 26 77  1  0  0  0  0
 27 28  1  6  0  0  0
 27 78  1  1  0  0  0
 27 79  1  0  0  0  0
 28 29  1  0  0  0  0
 28 80  1  6  0  0  0
 28 81  1  0  0  0  0
 29 30  1  6  0  0  0
 29 82  1  1  0  0  0
 30 31  1  0  0  0  0
 30 83  1  6  0  0  0
 30 84  1  0  0  0  0
 31 32  1  6  0  0  0
 31 85  1  1  0  0  0
 31 86  1  0  0  0  0
 32 33  1  0  0  0  0
 32 87  1  6  0  0  0
 32 88  1  0  0  0  0
 33 34  1  6  0  0  0
 33 89  1  1  0  0  0
 33 90  1  0  0  0  0
 34 91  1  0  0  0  0
 34 92  1  6  0  0  0
 36 93  1  1  0  0  0
 37 94  1  1  0  0  0
M  END
>  <Formula> (236)
C31H57N3O3

>  <Name> (236)
4-{3-[3-(4-AMINO-BUTYLAMINO)-PROPYLAMINO]-7-HYDROXY-10,13-DIMETHYL-HEXADECAHYDRO-CYCLOPENTA[A]PHENANTHREN-17-YL}-PENTANOIC ACID

>  <Compound classification> (236)
AB-Ster

>  <Microorganism> (236)
Pseudomonas aeruginosa

>  <Microorganism type> (236)
ATCC 27853

>  <Microorganism classification> (236)
Bac-

>  <MIC> (236)
32

>  <Method abbreviation> (236)
SDT

>  <Ref-Nr> (236)
6791

>  <Marker> (236)
0

>  <Method> (236)
Serial dilution test; Inoculum size: 1-5 x 10E5 CFU/ml; Medium: Mueller-Hinton broth and yeast assay broth; pH: ---; Incubation-temperature: 30(yeast), 35-37 degrees Centigrade; Incubation-time: 18-24h; Solubility enhancer: not given  (method from US 5,637,691, 1993)

>  <Reference> (236)
Zasloff, M., Kinney, W., Jones, S.: Aminosterol Ester Compounds; US 5,856,535 (1999)

>  <mol_id> (236)
3517

>  <MolWeight> (236)
519.80

>  <Nickname> (236)
Aminosterol 381, S-stereoisomer

$$$$

csChmFindW11180110282D

 94 97  0  0  0  0  0  0  0  0999 V2000
   17.2063    4.5635   -0.9970 C   0  0  0  0  0  0  0  0  0  0  0  0
   17.1022    2.5565   -1.2147 C   0  0  0  0  0  0  0  0  0  0  0  0
   18.2476    1.6257    0.1709 C   0  0  0  0  0  0  0  0  0  0  0  0
   20.1368    2.3448    0.2588 C   0  0  0  0  0  0  0  0  0  0  0  0
   20.2395    4.3548    0.5334 C   0  0  0  0  0  0  0  0  0  0  0  0
   19.1166    5.2180   -0.9315 C   0  0  0  0  0  0  0  0  0  0  0  0
   21.2299    1.3487    1.6424 C   0  0  0  0  0  0  0  0  0  0  0  0
   22.9583    2.2685    2.1299 C   0  0  0  0  0  0  0  0  0  0  0  0
   23.5748    3.4714    0.6420 C   0  0  0  0  0  0  0  0  0  0  0  0
   22.2018    4.9565    0.3336 C   0  0  0  0  0  0  0  0  0  0  0  0
   25.4492    4.2484    0.6109 C   0  0  0  0  0  0  0  0  0  0  0  0
   25.8636    5.8735    1.7570 C   0  0  0  0  0  0  0  0  0  0  0  0
   24.5345    7.2924    1.1847 C   0  0  0  0  0  0  0  0  0  0  0  0
   22.6287    6.6487    1.3701 C   0  0  0  0  0  0  0  0  0  0  0  0
   27.0629    3.0661    0.8149 C   0  0  0  0  0  0  0  0  0  0  0  0
   28.5944    4.3823    0.9508 C   0  0  0  0  0  0  0  0  0  0  0  0
   27.8064    6.2449    1.2183 C   0  0  0  0  0  0  0  0  0  0  0  0
   25.7583    5.4998    3.7453 C   0  0  0  0  0  0  0  0  0  0  0  0
   19.4412    4.8728    2.3331 C   0  0  0  0  0  0  0  0  0  0  0  0
   28.9771    7.4241    2.3996 C   0  0  0  0  0  0  0  0  0  0  0  0
   15.3049    1.8790   -1.0181 N   0  0  0  0  0  0  0  0  0  0  0  0
   28.2111    9.2791    2.6570 C   0  0  0  0  0  0  0  0  0  0  0  0
   30.8653    7.5752    1.6531 C   0  0  0  0  0  0  0  0  0  0  0  0
   32.2252    8.3896    2.9112 C   0  0  0  0  0  0  0  0  0  0  0  0
   32.2683    7.5328    4.7107 C   0  0  0  0  0  0  0  0  0  0  0  0
   14.0232    2.5732   -2.2721 C   0  0  0  0  0  0  0  0  0  0  0  0
   12.2187    1.7262   -1.9413 C   0  0  0  0  0  0  0  0  0  0  0  0
   10.7929    2.4652   -3.1655 C   0  0  0  0  0  0  0  0  0  0  0  0
    9.0864    1.6815   -2.7459 N   0  0  0  0  0  0  0  0  0  0  0  0
    7.6630    2.3758   -3.8384 C   0  0  0  0  0  0  0  0  0  0  0  0
    5.8990    1.5596   -3.2891 C   0  0  0  0  0  0  0  0  0  0  0  0
    4.3643    2.2616   -4.3987 C   0  0  0  0  0  0  0  0  0  0  0  0
    2.6010    1.4566   -3.8387 C   0  0  0  0  0  0  0  0  0  0  0  0
    1.1548    2.1403   -4.9266 N   0  0  0  0  0  0  0  0  0  0  0  0
   32.0341    8.2549    6.1054 O   0  0  0  0  0  0  0  0  0  0  0  0
   32.6407    5.8062    4.6095 O   0  0  0  0  0  0  0  0  0  0  0  0
   24.2148    0.9373    2.5444 O   0  0  0  0  0  0  0  0  0  0  0  0
   16.4779    4.9737    0.2044 H   0  0  0  0  0  0  0  0  0  0  0  0
   16.5483    5.2297   -2.1262 H   0  0  0  0  0  0  0  0  0  0  0  0
   17.6059    2.1980   -2.5480 H   0  0  0  0  0  0  0  0  0  0  0  0
   18.2920    0.1903   -0.1342 H   0  0  0  0  0  0  0  0  0  0  0  0
   17.6063    1.7296    1.4824 H   0  0  0  0  0  0  0  0  0  0  0  0
   20.7167    2.0682   -1.0659 H   0  0  0  0  0  0  0  0  0  0  0  0
   19.1283    6.6754   -0.7710 H   0  0  0  0  0  0  0  0  0  0  0  0
   19.7140    4.9401   -2.2429 H   0  0  0  0  0  0  0  0  0  0  0  0
   21.5070    0.0093    1.1100 H   0  0  0  0  0  0  0  0  0  0  0  0
   20.4451    1.1414    2.8633 H   0  0  0  0  0  0  0  0  0  0  0  0
   22.7770    3.0441    3.3524 H   0  0  0  0  0  0  0  0  0  0  0  0
   23.5656    2.5727   -0.5287 H   0  0  0  0  0  0  0  0  0  0  0  0
   22.4048    5.3301   -1.0772 H   0  0  0  0  0  0  0  0  0  0  0  0
   25.5760    4.7343   -0.7817 H   0  0  0  0  0  0  0  0  0  0  0  0
   24.7637    7.6797   -0.2106 H   0  0  0  0  0  0  0  0  0  0  0  0
   24.6961    8.5111    1.9753 H   0  0  0  0  0  0  0  0  0  0  0  0
   22.3721    6.4555    2.7957 H   0  0  0  0  0  0  0  0  0  0  0  0
   21.7325    7.7243    0.9285 H   0  0  0  0  0  0  0  0  0  0  0  0
   27.2153    2.1261   -0.2972 H   0  0  0  0  0  0  0  0  0  0  0  0
   27.0070    2.2894    2.0501 H   0  0  0  0  0  0  0  0  0  0  0  0
   29.4155    4.3376   -0.2631 H   0  0  0  0  0  0  0  0  0  0  0  0
   29.4488    3.9982    2.0787 H   0  0  0  0  0  0  0  0  0  0  0  0
   27.7729    6.8928   -0.1024 H   0  0  0  0  0  0  0  0  0  0  0  0
   25.9936    6.7061    4.5338 H   0  0  0  0  0  0  0  0  0  0  0  0
   26.7348    4.5031    4.1781 H   0  0  0  0  0  0  0  0  0  0  0  0
   24.4569    5.0119    4.1731 H   0  0  0  0  0  0  0  0  0  0  0  0
   19.2817    6.3204    2.4647 H   0  0  0  0  0  0  0  0  0  0  0  0
   20.2366    4.4084    3.4644 H   0  0  0  0  0  0  0  0  0  0  0  0
   18.1088    4.3253    2.5555 H   0  0  0  0  0  0  0  0  0  0  0  0
   29.0704    6.7822    3.7158 H   0  0  0  0  0  0  0  0  0  0  0  0
   14.8773    2.1506    0.2241 H   0  0  0  0  0  0  0  0  0  0  0  0
   29.1014   10.1420    3.4293 H   0  0  0  0  0  0  0  0  0  0  0  0
   26.9669    9.2677    3.4175 H   0  0  0  0  0  0  0  0  0  0  0  0
   27.9630    9.9330    1.3715 H   0  0  0  0  0  0  0  0  0  0  0  0
   30.8308    8.3452    0.4054 H   0  0  0  0  0  0  0  0  0  0  0  0
   31.3770    6.2517    1.2908 H   0  0  0  0  0  0  0  0  0  0  0  0
   31.9735    9.8213    3.0834 H   0  0  0  0  0  0  0  0  0  0  0  0
   33.5686    8.2908    2.3303 H   0  0  0  0  0  0  0  0  0  0  0  0
   14.4672    2.3015   -3.6422 H   0  0  0  0  0  0  0  0  0  0  0  0
   13.8847    4.0196   -2.0927 H   0  0  0  0  0  0  0  0  0  0  0  0
   11.8239    1.9593   -0.5467 H   0  0  0  0  0  0  0  0  0  0  0  0
   12.3179    0.2739   -2.1266 H   0  0  0  0  0  0  0  0  0  0  0  0
   11.1410    2.1822   -4.5614 H   0  0  0  0  0  0  0  0  0  0  0  0
   10.7109    3.9184   -2.9895 H   0  0  0  0  0  0  0  0  0  0  0  0
    8.8017    1.9127   -1.4558 H   0  0  0  0  0  0  0  0  0  0  0  0
    7.9333    2.0761   -5.2481 H   0  0  0  0  0  0  0  0  0  0  0  0
    7.5923    3.8311   -3.6752 H   0  0  0  0  0  0  0  0  0  0  0  0
    5.6508    1.8516   -1.8728 H   0  0  0  0  0  0  0  0  0  0  0  0
    5.9759    0.1009   -3.4272 H   0  0  0  0  0  0  0  0  0  0  0  0
    4.6061    1.9619   -5.8142 H   0  0  0  0  0  0  0  0  0  0  0  0
    4.2910    3.7208   -4.2663 H   0  0  0  0  0  0  0  0  0  0  0  0
    2.3132    1.7632   -2.4348 H   0  0  0  0  0  0  0  0  0  0  0  0
    2.6349    0.0000   -3.9925 H   0  0  0  0  0  0  0  0  0  0  0  0
    0.0000    1.5326   -4.6202 H   0  0  0  0  0  0  0  0  0  0  0  0
    1.3690    1.8804   -6.2239 H   0  0  0  0  0  0  0  0  0  0  0  0
   32.6682    5.3882    5.8165 H   0  0  0  0  0  0  0  0  0  0  0  0
   25.0505    1.4401    3.3055 H   0  0  0  0  0  0  0  0  0  0  0  0
  1  2  1  0  0  0  0
  1  6  1  0  0  0  0
  1 38  1  1  0  0  0
  1 39  1  6  0  0  0
  2  3  1  1  0  0  0
  2 21  1  0  0  0  0
  2 40  1  6  0  0  0
  3  4  1  0  0  0  0
  3 41  1  0  0  0  0
  3 42  1  1  0  0  0
  4  5  1  0  0  0  0
  4  7  1  1  0  0  0
  4 43  1  6  0  0  0
  5  6  1  6  0  0  0
  5 10  1  0  0  0  0
  5 19  1  1  0  0  0
  6 44  1  0  0  0  0
  6 45  1  6  0  0  0
  7  8  1  0  0  0  0
  7 46  1  0  0  0  0
  7 47  1  1  0  0  0
  8  9  1  6  0  0  0
  8 37  1  0  0  0  0
  8 48  1  1  0  0  0
  9 10  1  0  0  0  0
  9 11  1  0  0  0  0
  9 49  1  6  0  0  0
 10 14  1  1  0  0  0
 10 50  1  6  0  0  0
 11 12  1  1  0  0  0
 11 15  1  0  0  0  0
 11 51  1  6  0  0  0
 12 13  1  0  0  0  0
 12 17  1  0  0  0  0
 12 18  1  1  0  0  0
 13 14  1  0  0  0  0
 13 52  1  6  0  0  0
 13 53  1  1  0  0  0
 14 54  1  1  0  0  0
 14 55  1  0  0  0  0
 15 16  1  0  0  0  0
 15 56  1  6  0  0  0
 15 57  1  1  0  0  0
 16 17  1  0  0  0  0
 16 58  1  6  0  0  0
 16 59  1  1  0  0  0
 17 20  1  1  0  0  0
 17 60  1  6  0  0  0
 18 61  1  1  0  0  0
 18 62  1  0  0  0  0
 18 63  1  0  0  0  0
 19 64  1  0  0  0  0
 19 65  1  1  0  0  0
 19 66  1  0  0  0  0
 20 22  1  0  0  0  0
 20 23  1  0  0  0  0
 20 67  1  1  0  0  0
 21 26  1  6  0  0  0
 21 68  1  1  0  0  0
 22 69  1  1  0  0  0
 22 70  1  1  0  0  0
 22 71  1  6  0  0  0
 23 24  1  1  0  0  0
 23 72  1  6  0  0  0
 23 73  1  0  0  0  0
 24 25  1  1  0  0  0
 24 74  1  0  0  0  0
 24 75  1  0  0  0  0
 25 35  2  0  0  0  0
 25 36  1  0  0  0  0
 26 27  1  0  0  0  0
 26 76  1  6  0  0  0
 26 77  1  0  0  0  0
 27 28  1  6  0  0  0
 27 78  1  1  0  0  0
 27 79  1  0  0  0  0
 28 29  1  0  0  0  0
 28 80  1  6  0  0  0
 28 81  1  0  0  0  0
 29 30  1  6  0  0  0
 29 82  1  1  0  0  0
 30 31  1  0  0  0  0
 30 83  1  6  0  0  0
 30 84  1  0  0  0  0
 31 32  1  6  0  0  0
 31 85  1  1  0  0  0
 31 86  1  0  0  0  0
 32 33  1  0  0  0  0
 32 87  1  6  0  0  0
 32 88  1  0  0  0  0
 33 34  1  6  0  0  0
 33 89  1  1  0  0  0
 33 90  1  0  0  0  0
 34 91  1  0  0  0  0
 34 92  1  6  0  0  0
 36 93  1  1  0  0  0
 37 94  1  1  0  0  0
M  END
>  <Formula> (237)
C31H57N3O3

>  <Name> (237)
4-{3-[3-(4-AMINO-BUTYLAMINO)-PROPYLAMINO]-7-HYDROXY-10,13-DIMETHYL-HEXADECAHYDRO-CYCLOPENTA[A]PHENANTHREN-17-YL}-PENTANOIC ACID

>  <Compound classification> (237)
AB-Ster

>  <Microorganism> (237)
Candida albicans

>  <Microorganism type> (237)
ATCC 14053

>  <Microorganism classification> (237)
yeast

>  <MIC> (237)
128

>  <Method abbreviation> (237)
SDT

>  <Ref-Nr> (237)
6791

>  <Marker> (237)
0

>  <Method> (237)
Serial dilution test; Inoculum size: 1-5 x 10E5 CFU/ml; Medium: Mueller-Hinton broth and yeast assay broth; pH: ---; Incubation-temperature: 30(yeast), 35-37 degrees Centigrade; Incubation-time: 18-24h; Solubility enhancer: not given  (method from US 5,637,691, 1993)

>  <Reference> (237)
Zasloff, M., Kinney, W., Jones, S.: Aminosterol Ester Compounds; US 5,856,535 (1999)

>  <mol_id> (237)
3517

>  <MolWeight> (237)
519.80

>  <Nickname> (237)
Aminosterol 381, S-stereoisomer

$$$$

csChmFindW11180110282D

 23 24  0  0  0  0  0  0  0  0999 V2000
    2.1964    4.1108    0.4933 C   0  0  0  0  0  0  0  0  0  0  0  0
    1.3378    2.6473    0.4933 C   0  0  0  0  0  0  0  0  0  0  0  0
    2.1828    1.1754    0.4787 C   0  0  0  0  0  0  0  0  0  0  0  0
    3.8778    1.1653    0.4703 C   0  0  0  0  0  0  0  0  0  0  0  0
    4.7507    2.6333    0.4752 C   0  0  0  0  0  0  0  0  0  0  0  0
    3.8921    4.1074    0.4817 C   0  0  0  0  0  0  0  0  0  0  0  0
    6.5283    2.6072    0.4946 C   0  0  0  0  0  0  0  0  0  0  0  0
    7.3475    1.4719    1.4703 C   0  0  0  0  0  0  0  0  0  0  0  0
    9.0402    1.4033    1.5130 C   0  0  0  0  0  0  0  0  0  0  0  0
    9.9589    2.4751    0.5717 C   0  0  0  0  0  0  0  0  0  0  0  0
    9.1851    3.6193   -0.4067 C   0  0  0  0  0  0  0  0  0  0  0  0
    7.4787    3.6907   -0.4411 C   0  0  0  0  0  0  0  0  0  0  0  0
    6.6778    4.8220   -1.3827 O   0  0  0  0  0  0  0  0  0  0  0  0
    1.5353    5.2745    0.5003 H   0  0  0  0  0  0  0  0  0  0  0  0
    0.0000    2.6531    0.5018 H   0  0  0  0  0  0  0  0  0  0  0  0
    1.5108    0.0180    0.4712 H   0  0  0  0  0  0  0  0  0  0  0  0
    4.5368    0.0000    0.4489 H   0  0  0  0  0  0  0  0  0  0  0  0
    4.5671    5.2649    0.4637 H   0  0  0  0  0  0  0  0  0  0  0  0
    6.6297    0.6247    2.2212 H   0  0  0  0  0  0  0  0  0  0  0  0
    9.6510    0.5024    2.2910 H   0  0  0  0  0  0  0  0  0  0  0  0
   11.2960    2.4204    0.6014 H   0  0  0  0  0  0  0  0  0  0  0  0
    9.9021    4.4677   -1.1520 H   0  0  0  0  0  0  0  0  0  0  0  0
    7.4817    5.3803   -2.0392 H   0  0  0  0  0  0  0  0  0  0  0  0
  1  2  2  0  0  0  0
  1  6  1  0  0  0  0
  1 14  1  0  0  0  0
  2  3  1  0  0  0  0
  2 15  1  0  0  0  0
  3  4  2  0  0  0  0
  3 16  1  0  0  0  0
  4  5  1  0  0  0  0
  4 17  1  0  0  0  0
  5  6  2  0  0  0  0
  5  7  1  0  0  0  0
  6 18  1  0  0  0  0
  7  8  2  0  0  0  0
  7 12  1  6  0  0  0
  8  9  1  0  0  0  0
  8 19  1  1  0  0  0
  9 10  2  0  0  0  0
  9 20  1  1  0  0  0
 10 11  1  6  0  0  0
 10 21  1  0  0  0  0
 11 12  2  0  0  0  0
 11 22  1  6  0  0  0
 12 13  1  6  0  0  0
 13 23  1  6  0  0  0
M  END
>  <Formula> (238)
C12H10O

>  <Name> (238)
BIPHENYL-2-OL

>  <CAS-Nr> (238)
90-43-7

>  <EINECS> (238)
201-993-5

>  <21 CFR> (238)
175.105

>  <LD50-rat-oral> (238)
2000

>  <Compound classification> (238)
Ar-OH

>  <Microorganism> (238)
Staphylococcus epidermidis

>  <Microorganism classification> (238)
Bac+

>  <Inhibition zone> (238)
7

>  <ADT evaluation> (238)
2

>  <Method abbreviation> (238)
ADT

>  <Ref-Nr> (238)
6804

>  <Marker> (238)
0

>  <Method> (238)
Agar diffusion test; Medium: brucella, blood agar; Inoculum size: adjusted by optical density; disk diameter: ---; Incubation temperature: 37 degrees Centigrade; Incubation time: 48h; compound dose: 10 microliter solution; Solubility enhancer: ethanol

>  <Reference> (238)
Stephens, J., Kiger, R., Kettering, J.: In vitro Comparison of the Effectiveness of Three Surface Disinfectants; California Dental Association: CDA-Journal 22, 40-2 + 44-6 (1994)

>  <mol_id> (238)
1461

>  <LD50-mouse-oral> (238)
1050

>  <LD50-mou-ip> (238)
50

>  <MolWeight> (238)
170.21

>  <Nickname> (238)
ortho-Phenylphenol

>  <other Names> (238)
ortho-Xenol, 2-Biphenylol

$$$$

csChmFindW11180110282D

 23 24  0  0  0  0  0  0  0  0999 V2000
    2.1964    4.1108    0.4933 C   0  0  0  0  0  0  0  0  0  0  0  0
    1.3378    2.6473    0.4933 C   0  0  0  0  0  0  0  0  0  0  0  0
    2.1828    1.1754    0.4787 C   0  0  0  0  0  0  0  0  0  0  0  0
    3.8778    1.1653    0.4703 C   0  0  0  0  0  0  0  0  0  0  0  0
    4.7507    2.6333    0.4752 C   0  0  0  0  0  0  0  0  0  0  0  0
    3.8921    4.1074    0.4817 C   0  0  0  0  0  0  0  0  0  0  0  0
    6.5283    2.6072    0.4946 C   0  0  0  0  0  0  0  0  0  0  0  0
    7.3475    1.4719    1.4703 C   0  0  0  0  0  0  0  0  0  0  0  0
    9.0402    1.4033    1.5130 C   0  0  0  0  0  0  0  0  0  0  0  0
    9.9589    2.4751    0.5717 C   0  0  0  0  0  0  0  0  0  0  0  0
    9.1851    3.6193   -0.4067 C   0  0  0  0  0  0  0  0  0  0  0  0
    7.4787    3.6907   -0.4411 C   0  0  0  0  0  0  0  0  0  0  0  0
    6.6778    4.8220   -1.3827 O   0  0  0  0  0  0  0  0  0  0  0  0
    1.5353    5.2745    0.5003 H   0  0  0  0  0  0  0  0  0  0  0  0
    0.0000    2.6531    0.5018 H   0  0  0  0  0  0  0  0  0  0  0  0
    1.5108    0.0180    0.4712 H   0  0  0  0  0  0  0  0  0  0  0  0
    4.5368    0.0000    0.4489 H   0  0  0  0  0  0  0  0  0  0  0  0
    4.5671    5.2649    0.4637 H   0  0  0  0  0  0  0  0  0  0  0  0
    6.6297    0.6247    2.2212 H   0  0  0  0  0  0  0  0  0  0  0  0
    9.6510    0.5024    2.2910 H   0  0  0  0  0  0  0  0  0  0  0  0
   11.2960    2.4204    0.6014 H   0  0  0  0  0  0  0  0  0  0  0  0
    9.9021    4.4677   -1.1520 H   0  0  0  0  0  0  0  0  0  0  0  0
    7.4817    5.3803   -2.0392 H   0  0  0  0  0  0  0  0  0  0  0  0
  1  2  2  0  0  0  0
  1  6  1  0  0  0  0
  1 14  1  0  0  0  0
  2  3  1  0  0  0  0
  2 15  1  0  0  0  0
  3  4  2  0  0  0  0
  3 16  1  0  0  0  0
  4  5  1  0  0  0  0
  4 17  1  0  0  0  0
  5  6  2  0  0  0  0
  5  7  1  0  0  0  0
  6 18  1  0  0  0  0
  7  8  2  0  0  0  0
  7 12  1  6  0  0  0
  8  9  1  0  0  0  0
  8 19  1  1  0  0  0
  9 10  2  0  0  0  0
  9 20  1  1  0  0  0
 10 11  1  6  0  0  0
 10 21  1  0  0  0  0
 11 12  2  0  0  0  0
 11 22  1  6  0  0  0
 12 13  1  6  0  0  0
 13 23  1  6  0  0  0
M  END
>  <Formula> (239)
C12H10O

>  <Name> (239)
BIPHENYL-2-OL

>  <CAS-Nr> (239)
90-43-7

>  <EINECS> (239)
201-993-5

>  <21 CFR> (239)
175.105

>  <LD50-rat-oral> (239)
2000

>  <Compound classification> (239)
Ar-OH

>  <Microorganism> (239)
Staphylococcus aureus

>  <Microorganism type> (239)
FDA 209P

>  <Microorganism classification> (239)
Bac+

>  <MIC> (239)
200

>  <Method abbreviation> (239)
SDT

>  <Ref-Nr> (239)
6805

>  <Marker> (239)
0

>  <Method> (239)
Serial dilution test; Inoculum size: ---; Medium: Tryptic soy broth; pH: ---; Incubation-temperature: 30,37 degrees Centigrade; Incubation-time: 24-48h; Solubility enhancer: dimethylformamide; method in Japanese - not fully translated

>  <Reference> (239)
Ishizeki, C.: Studies on the Preservatives, Especially, on the Antimicrobial Spectra of 46 Kinds of Preservatives; Bulletin of National Institute of Health Sciences 89, 140-3 (1971) [Eisei Shikenjo Hokoku]

>  <mol_id> (239)
1461

>  <LD50-mouse-oral> (239)
1050

>  <LD50-mou-ip> (239)
50

>  <MolWeight> (239)
170.21

>  <Nickname> (239)
ortho-Phenylphenol

>  <other Names> (239)
ortho-Xenol, 2-Biphenylol

$$$$
>  <Name> (240)
[2S-[2ALPHA,5ALPHA,6BETA(S*)]]-6-[(AMINOPHENYLACETYL)AMINO]-3,3-DIMETHYL-7-OXO-4-THIA-1-AZABICYCLO[3.2.0]HEPTANE-2-CARBOXYLIC ACID

>  <CAS-Nr> (240)
69-53-4

>  <EINECS> (240)
200-709-7

>  <21 CFR> (240)
556.40

>  <LD50-rat-oral> (240)
10000

>  <Compound classification> (240)
AB-bLac

>  <Microorganism> (240)
Staphylococcus aureus

>  <Microorganism classification> (240)
Bac+

>  <MIC> (240)
0.12

>  <Method abbreviation> (240)
SDT

>  <Ref-Nr> (240)
6809

>  <Marker> (240)
0

>  <Method> (240)
Serial dilution test; Inoculum size: 10E5 cells/ml; Medium:         Mueller-Hinton broth; pH: ---; Incubation-temperature: 37 degrees  Centigrade; Incubation-time: 24-48h; Solubility enhancer: 2.5% ethanol; MMC determined in subcultures

>  <Reference> (240)
Braca, A., Morelli, I., Mendez, J., Battinelli, L., Braghiroli, L., Mazzanti, G.: Antimicrobial Triterpenoids from Licania heteromorpha; Planta Medica 66, 768-9 (2000)

>  <mol_id> (240)
2136

>  <LD50-mouse-oral> (240)
15200

>  <LD50-mou-ip> (240)
3250

>  <Nickname> (240)
Ampicillin

>  <other Names> (240)
AB-PC, Adobacillin, Amblosin, Amfipen, Aminobenzylpenicillin, D-(-)-alpha-Aminobenzylpenicillin, D-(-)-alpha-Aminopenicillin, 6-(D(-)-alpha-Aminophenylacetamido)penicillanic acid, Amipenix S, Ampi-bol, Ampicillin, D-Ampicillin, D-(-)-Ampicillin, Ampicillin A, Ampicillin acid, Ampicillin anhydrate, Ampicin, Ampimed, Ampipenin, Amplisom, Amplital, Ampy-Penyl, Austrapen, AY-6108, Binotal, Bonapicillin, Britacil, BRL 1341, Copharcilin, Doktacillin, Grampenil, Guicitrina, NSC-528986, Nuvapen, Olin Kid, Omnipen, P-50, Penbristol, Penbritin, Penbritin paediatric, Penbritin syrup, Penbrock, Penicillin, (aminophenylmethyl)-, Penicline, Pentrex, Pentrexl, Pfizerpen A, Ponecil, Principen, Qidamp, Roscillin, Semicillin, SK-Ampicillin, Synpenin, Tokiocillin, Tolomol, Totacillin, Totalciclina, Totapen, Ultrabron, Viccillin, Viccillin S, WY-5103

>  <LD50-mou-iv> (240)
4600

$$$$

csChmFindW11180110282D

 24 24  0  0  0  0  0  0  0  0999 V2000
    7.9403    5.4393    1.2459 C   0  0  0  0  0  0  0  0  0  0  0  0
    7.0715    3.9032    1.1169 C   0  0  0  0  0  0  0  0  0  0  0  0
    7.0436    6.9418    1.2706 C   0  0  0  0  0  0  0  0  0  0  0  0
    9.6533    5.5396    1.3495 O   0  0  0  0  0  0  0  0  0  0  0  0
    5.3313    3.8844    1.0176 C   0  0  0  0  0  0  0  0  0  0  0  0
    8.0859    2.4972    1.0977 O   0  0  0  0  0  0  0  0  0  0  0  0
    5.3043    6.9088    1.1697 C   0  0  0  0  0  0  0  0  0  0  0  0
    4.4421    5.3943    1.0446 C   0  0  0  0  0  0  0  0  0  0  0  0
    7.2456    0.9312    1.0245 C   0  0  0  0  0  0  0  0  0  0  0  0
    2.5800    5.3709    0.9558 C   0  0  0  0  0  0  0  0  0  0  0  0
    1.9625    4.8221   -0.7096 C   0  0  0  0  0  0  0  0  0  0  0  0
    0.6867    5.5375   -1.5034 C   0  0  0  0  0  0  0  0  0  0  0  0
    7.7279    8.1301    1.3693 H   0  0  0  0  0  0  0  0  0  0  0  0
   10.0991    4.4125    1.3189 H   0  0  0  0  0  0  0  0  0  0  0  0
    4.6447    2.6976    0.9179 H   0  0  0  0  0  0  0  0  0  0  0  0
    4.6074    8.0955    1.1881 H   0  0  0  0  0  0  0  0  0  0  0  0
    8.2910    0.0000    1.0470 H   0  0  0  0  0  0  0  0  0  0  0  0
    6.5127    0.8222   -0.1601 H   0  0  0  0  0  0  0  0  0  0  0  0
    6.4124    0.7665    2.1338 H   0  0  0  0  0  0  0  0  0  0  0  0
    2.0705    6.6423    1.2716 H   0  0  0  0  0  0  0  0  0  0  0  0
    2.0879    4.4776    1.9283 H   0  0  0  0  0  0  0  0  0  0  0  0
    2.6384    3.7511   -1.2561 H   0  0  0  0  0  0  0  0  0  0  0  0
    0.2434    5.0923   -2.7240 H   0  0  0  0  0  0  0  0  0  0  0  0
    0.0000    6.6121   -0.9949 H   0  0  0  0  0  0  0  0  0  0  0  0
  1  2  2  0  0  0  0
  1  3  1  0  0  0  0
  1  4  1  0  0  0  0
  2  5  1  0  0  0  0
  2  6  1  0  0  0  0
  3  7  2  0  0  0  0
  3 13  1  0  0  0  0
  4 14  1  0  0  0  0
  5  8  2  0  0  0  0
  5 15  1  0  0  0  0
  6  9  1  0  0  0  0
  7  8  1  0  0  0  0
  7 16  1  0  0  0  0
  8 10  1  0  0  0  0
  9 17  1  0  0  0  0
  9 18  1  6  0  0  0
  9 19  1  1  0  0  0
 10 11  1  6  0  0  0
 10 20  1  0  0  0  0
 10 21  1  1  0  0  0
 11 12  2  0  0  0  0
 11 22  1  0  0  0  0
 12 23  1  6  0  0  0
 12 24  1  0  0  0  0
M  END
>  <Formula> (241)
C10H12O2

>  <Name> (241)
2-METHOXY-4-(2-PROPENYL)-PHENOL

>  <CAS-Nr> (241)
97-53-0

>  <EINECS> (241)
202-589-1

>  <21 CFR> (241)
184.1257, 175.105, 177.2800, 582.60

>  <LD50-rat-oral> (241)
1930

>  <Compound classification> (241)
Phenylpropane

>  <Microorganism> (241)
Acinetobacter calcoaceticus

>  <Microorganism type> (241)
NCIB 8250

>  <Microorganism classification> (241)
Bac-

>  <Inhibition zone> (241)
15,4

>  <ADT evaluation> (241)
3

>  <Method abbreviation> (241)
ADT

>  <Ref-Nr> (241)
6815

>  <Marker> (241)
0

>  <Method> (241)
Agar diffusion test; Medium: Iso-sensitest agar; Inoculum size: 10E5 cfu/ml; well diameter: 4 mm; Incubation temperature: 25 degrees Centigrade; Incubation time: 48h; compound dose: 15 microliter test substance/well

>  <Reference> (241)
Dorman, H.J., Deans, S.G.: Antimicrobial Agents from Plants: Antibacterial Activity of Plant Volatile Oils; Journal of Applied Microbiology 88, 308-16 (2000)

>  <mol_id> (241)
118

>  <LD50-mouse-oral> (241)
3000

>  <LD50-mou-ip> (241)
500

>  <MolWeight> (241)
164.20

>  <Nickname> (241)
Eugenol

>  <other Names> (241)
3-Methoxy-4-hydroxy-allylbenzene, Allylguaiacol, Eugenic acid, Caryophyllic acid

>  <LD50-mou-iv> (241)
72

$$$$

csChmFindW11180110282D

 24 24  0  0  0  0  0  0  0  0999 V2000
    7.9403    5.4393    1.2459 C   0  0  0  0  0  0  0  0  0  0  0  0
    7.0715    3.9032    1.1169 C   0  0  0  0  0  0  0  0  0  0  0  0
    7.0436    6.9418    1.2706 C   0  0  0  0  0  0  0  0  0  0  0  0
    9.6533    5.5396    1.3495 O   0  0  0  0  0  0  0  0  0  0  0  0
    5.3313    3.8844    1.0176 C   0  0  0  0  0  0  0  0  0  0  0  0
    8.0859    2.4972    1.0977 O   0  0  0  0  0  0  0  0  0  0  0  0
    5.3043    6.9088    1.1697 C   0  0  0  0  0  0  0  0  0  0  0  0
    4.4421    5.3943    1.0446 C   0  0  0  0  0  0  0  0  0  0  0  0
    7.2456    0.9312    1.0245 C   0  0  0  0  0  0  0  0  0  0  0  0
    2.5800    5.3709    0.9558 C   0  0  0  0  0  0  0  0  0  0  0  0
    1.9625    4.8221   -0.7096 C   0  0  0  0  0  0  0  0  0  0  0  0
    0.6867    5.5375   -1.5034 C   0  0  0  0  0  0  0  0  0  0  0  0
    7.7279    8.1301    1.3693 H   0  0  0  0  0  0  0  0  0  0  0  0
   10.0991    4.4125    1.3189 H   0  0  0  0  0  0  0  0  0  0  0  0
    4.6447    2.6976    0.9179 H   0  0  0  0  0  0  0  0  0  0  0  0
    4.6074    8.0955    1.1881 H   0  0  0  0  0  0  0  0  0  0  0  0
    8.2910    0.0000    1.0470 H   0  0  0  0  0  0  0  0  0  0  0  0
    6.5127    0.8222   -0.1601 H   0  0  0  0  0  0  0  0  0  0  0  0
    6.4124    0.7665    2.1338 H   0  0  0  0  0  0  0  0  0  0  0  0
    2.0705    6.6423    1.2716 H   0  0  0  0  0  0  0  0  0  0  0  0
    2.0879    4.4776    1.9283 H   0  0  0  0  0  0  0  0  0  0  0  0
    2.6384    3.7511   -1.2561 H   0  0  0  0  0  0  0  0  0  0  0  0
    0.2434    5.0923   -2.7240 H   0  0  0  0  0  0  0  0  0  0  0  0
    0.0000    6.6121   -0.9949 H   0  0  0  0  0  0  0  0  0  0  0  0
  1  2  2  0  0  0  0
  1  3  1  0  0  0  0
  1  4  1  0  0  0  0
  2  5  1  0  0  0  0
  2  6  1  0  0  0  0
  3  7  2  0  0  0  0
  3 13  1  0  0  0  0
  4 14  1  0  0  0  0
  5  8  2  0  0  0  0
  5 15  1  0  0  0  0
  6  9  1  0  0  0  0
  7  8  1  0  0  0  0
  7 16  1  0  0  0  0
  8 10  1  0  0  0  0
  9 17  1  0  0  0  0
  9 18  1  6  0  0  0
  9 19  1  1  0  0  0
 10 11  1  6  0  0  0
 10 20  1  0  0  0  0
 10 21  1  1  0  0  0
 11 12  2  0  0  0  0
 11 22  1  0  0  0  0
 12 23  1  6  0  0  0
 12 24  1  0  0  0  0
M  END
>  <Formula> (242)
C10H12O2

>  <Name> (242)
2-METHOXY-4-(2-PROPENYL)-PHENOL

>  <CAS-Nr> (242)
97-53-0

>  <EINECS> (242)
202-589-1

>  <21 CFR> (242)
184.1257, 175.105, 177.2800, 582.60

>  <LD50-rat-oral> (242)
1930

>  <Compound classification> (242)
Phenylpropane

>  <Microorganism> (242)
Vibrio natriegens

>  <Microorganism type> (242)
ATCC 14048

>  <Publication strain name> (242)
Beneckea natriegens

>  <Microorganism classification> (242)
Bac-

>  <Inhibition zone> (242)
20,8

>  <ADT evaluation> (242)
3

>  <Method abbreviation> (242)
ADT

>  <Ref-Nr> (242)
6815

>  <Marker> (242)
0

>  <Method> (242)
Agar diffusion test; Medium: Iso-sensitest agar; Inoculum size: 10E5 cfu/ml; well diameter: 4 mm; Incubation temperature: 25 degrees Centigrade; Incubation time: 48h; compound dose: 15 microliter test substance/well

>  <Reference> (242)
Dorman, H.J., Deans, S.G.: Antimicrobial Agents from Plants: Antibacterial Activity of Plant Volatile Oils; Journal of Applied Microbiology 88, 308-16 (2000)

>  <mol_id> (242)
118

>  <LD50-mouse-oral> (242)
3000

>  <LD50-mou-ip> (242)
500

>  <MolWeight> (242)
164.20

>  <Nickname> (242)
Eugenol

>  <other Names> (242)
3-Methoxy-4-hydroxy-allylbenzene, Allylguaiacol, Eugenic acid, Caryophyllic acid

>  <LD50-mou-iv> (242)
72

$$$$

csChmFindW11180110282D

 29 30  0  0  0  0  0  0  0  0999 V2000
    3.0840    4.5474   -0.2239 C   0  0  0  0  0  0  0  0  0  0  0  0
    1.2830    4.1887   -1.2987 C   0  0  0  0  0  0  0  0  0  0  0  0
    4.6659    4.0920   -1.5452 C   0  0  0  0  0  0  0  0  0  0  0  0
    3.1959    6.3930    0.6317 C   0  0  0  0  0  0  0  0  0  0  0  0
    3.1023    2.8552    1.0914 C   0  0  0  0  0  0  0  0  0  0  0  0
    1.2613    2.0877   -1.5408 C   0  0  0  0  0  0  0  0  0  0  0  0
    1.3272    5.1441   -2.9766 O   0  0  0  0  0  0  0  0  0  0  0  0
    4.6161    2.0001   -1.7054 C   0  0  0  0  0  0  0  0  0  0  0  0
    2.9772    1.4501   -0.5082 C   0  0  0  0  0  0  0  0  0  0  0  0
    4.8328    2.6854    2.2058 C   0  0  0  0  0  0  0  0  0  0  0  0
    1.5070    2.7691    2.3997 C   0  0  0  0  0  0  0  0  0  0  0  0
    0.0742    4.6692   -0.4883 H   0  0  0  0  0  0  0  0  0  0  0  0
    5.9937    4.5808   -0.9833 H   0  0  0  0  0  0  0  0  0  0  0  0
    4.4448    4.7626   -2.8952 H   0  0  0  0  0  0  0  0  0  0  0  0
    4.4973    6.5363    1.4131 H   0  0  0  0  0  0  0  0  0  0  0  0
    2.0297    6.6133    1.5886 H   0  0  0  0  0  0  0  0  0  0  0  0
    3.1480    7.4679   -0.4490 H   0  0  0  0  0  0  0  0  0  0  0  0
    1.3276    1.7066   -3.0140 H   0  0  0  0  0  0  0  0  0  0  0  0
    0.0000    1.4801   -0.9456 H   0  0  0  0  0  0  0  0  0  0  0  0
    0.2744    4.7453   -3.6581 H   0  0  0  0  0  0  0  0  0  0  0  0
    5.9017    1.3689   -1.1883 H   0  0  0  0  0  0  0  0  0  0  0  0
    4.4220    1.5554   -3.1483 H   0  0  0  0  0  0  0  0  0  0  0  0
    2.9560    0.0000   -0.0921 H   0  0  0  0  0  0  0  0  0  0  0  0
    4.8867    1.3118    2.8650 H   0  0  0  0  0  0  0  0  0  0  0  0
    4.8489    3.7499    3.2977 H   0  0  0  0  0  0  0  0  0  0  0  0
    6.0873    2.8582    1.3629 H   0  0  0  0  0  0  0  0  0  0  0  0
    1.6198    1.5201    3.2675 H   0  0  0  0  0  0  0  0  0  0  0  0
    0.1645    2.7225    1.6864 H   0  0  0  0  0  0  0  0  0  0  0  0
    1.5201    3.9930    3.3093 H   0  0  0  0  0  0  0  0  0  0  0  0
  1  2  1  6  0  0  0
  1  3  1  6  0  0  0
  1  4  1  0  0  0  0
  1  5  1  1  0  0  0
  2  6  1  0  0  0  0
  2  7  1  6  0  0  0
  2 12  1  1  0  0  0
  3  8  1  0  0  0  0
  3 13  1  0  0  0  0
  3 14  1  6  0  0  0
  4 15  1  1  0  0  0
  4 16  1  1  0  0  0
  4 17  1  6  0  0  0
  5  9  1  6  0  0  0
  5 10  1  1  0  0  0
  5 11  1  1  0  0  0
  6  9  1  1  0  0  0
  6 18  1  6  0  0  0
  6 19  1  0  0  0  0
  7 20  1  6  0  0  0
  8  9  1  1  0  0  0
  8 21  1  0  0  0  0
  8 22  1  6  0  0  0
  9 23  1  0  0  0  0
 10 24  1  0  0  0  0
 10 25  1  1  0  0  0
 10 26  1  6  0  0  0
 11 27  1  1  0  0  0
 11 28  1  6  0  0  0
 11 29  1  1  0  0  0
M  END
>  <Formula> (243)
C10H18O

>  <Name> (243)
(1R,2S,4R)-REL-1,7,7-TRIMETHYLBICYCLO[2.2.1]HEPTAN-2-OL

>  <CAS-Nr> (243)
507-70-0

>  <EINECS> (243)
208-080-0

>  <21 CFR> (243)
172.515

>  <LD50-rat-oral> (243)
500

>  <Compound classification> (243)
Monoterpene

>  <Microorganism> (243)
Eschericia coli

>  <Microorganism type> (243)
NCIB 8879

>  <Microorganism classification> (243)
Bac-

>  <Inhibition zone> (243)
6,7

>  <ADT evaluation> (243)
2

>  <Method abbreviation> (243)
ADT

>  <Ref-Nr> (243)
6815

>  <Marker> (243)
0

>  <Method> (243)
Agar diffusion test; Medium: Iso-sensitest agar; Inoculum size: 10E5 cfu/ml; well diameter: 4 mm; Incubation temperature: 25 degrees Centigrade; Incubation time: 48h; compound dose: 15 microliter test substance/well

>  <Reference> (243)
Dorman, H.J., Deans, S.G.: Antimicrobial Agents from Plants: Antibacterial Activity of Plant Volatile Oils; Journal of Applied Microbiology 88, 308-16 (2000)

>  <mol_id> (243)
200

>  <LD50-mouse-oral> (243)
1059

>  <MolWeight> (243)
154.25

>  <Nickname> (243)
DL-Borneol

>  <other Names> (243)
Sumatra camphor, Camphol

$$$$

csChmFindW11180110282D

 60 64  0  0  0  0  0  0  0  0999 V2000
    7.9301    4.3082   -0.5911 C   0  0  0  0  0  0  0  0  0  0  0  0
    7.9138    2.3619   -0.2509 C   0  0  0  0  0  0  0  0  0  0  0  0
    9.4968    5.1280    0.2740 C   0  0  0  0  0  0  0  0  0  0  0  0
    6.2987    5.2331   -0.0276 C   0  0  0  0  0  0  0  0  0  0  0  0
    6.3384    1.3938   -0.9014 C   0  0  0  0  0  0  0  0  0  0  0  0
    9.7331    6.9694   -0.1555 C   0  0  0  0  0  0  0  0  0  0  0  0
    9.9793    7.6613   -1.7380 C   0  0  0  0  0  0  0  0  0  0  0  0
   10.1248    9.3868   -1.6680 N   0  0  0  0  0  0  0  0  0  0  0  0
    9.9629    9.8066   -0.0305 C   0  0  0  0  0  0  0  0  0  0  0  0
    9.7266    8.3784    0.9153 N   0  0  0  0  0  0  0  0  0  0  0  0
   10.0062   11.3997    0.7068 N   0  0  0  0  0  0  0  0  0  0  0  0
    6.3279    7.0264   -0.5299 N   0  0  0  0  0  0  0  0  0  0  0  0
    5.7925    8.3393    0.4625 C   0  0  0  0  0  0  0  0  0  0  0  0
    5.5949    9.7302   -0.1936 O   0  0  0  0  0  0  0  0  0  0  0  0
    5.4861    8.1380    2.3078 C   0  0  0  0  0  0  0  0  0  0  0  0
    4.1974    8.9366    3.1991 C   0  0  0  0  0  0  0  0  0  0  0  0
    4.3461    8.4292    4.9086 C   0  0  0  0  0  0  0  0  0  0  0  0
    5.7189    7.3365    5.0399 C   0  0  0  0  0  0  0  0  0  0  0  0
    6.3938    7.1711    3.4520 N   0  0  0  0  0  0  0  0  0  0  0  0
    2.8909    9.1602    6.6516 Br  0  0  0  0  0  0  0  0  0  0  0  0
    4.8256    1.7056    0.1365 N   0  0  0  0  0  0  0  0  0  0  0  0
    3.2351    1.9677   -0.4972 C   0  0  0  0  0  0  0  0  0  0  0  0
    2.0421    1.9664    0.4936 O   0  0  0  0  0  0  0  0  0  0  0  0
    2.9017    2.2783   -2.3248 C   0  0  0  0  0  0  0  0  0  0  0  0
    1.4730    1.7129   -3.1823 C   0  0  0  0  0  0  0  0  0  0  0  0
    1.6165    2.2615   -4.8799 C   0  0  0  0  0  0  0  0  0  0  0  0
    3.1221    3.1563   -5.0402 C   0  0  0  0  0  0  0  0  0  0  0  0
    3.8853    3.1522   -3.4844 N   0  0  0  0  0  0  0  0  0  0  0  0
    0.0000    1.8124   -6.5755 Br  0  0  0  0  0  0  0  0  0  0  0  0
   11.0664    4.1484   -0.1564 C   0  0  0  0  0  0  0  0  0  0  0  0
   11.0692    2.5140   -0.7454 C   0  0  0  0  0  0  0  0  0  0  0  0
    9.4932    1.5067   -1.0511 C   0  0  0  0  0  0  0  0  0  0  0  0
   12.7766    2.1355   -0.9776 N   0  0  0  0  0  0  0  0  0  0  0  0
   13.7078    3.5225   -0.5260 C   0  0  0  0  0  0  0  0  0  0  0  0
   12.6749    4.7706   -0.0121 N   0  0  0  0  0  0  0  0  0  0  0  0
   15.4600    3.5261   -0.6438 N   0  0  0  0  0  0  0  0  0  0  0  0
    4.0521    4.2036   -6.9614 Br  0  0  0  0  0  0  0  0  0  0  0  0
    6.5740    6.2280    6.9614 Br  0  0  0  0  0  0  0  0  0  0  0  0
    8.0450    4.4728   -1.9976 H   0  0  0  0  0  0  0  0  0  0  0  0
    7.9815    2.1780    1.1568 H   0  0  0  0  0  0  0  0  0  0  0  0
    9.3384    5.0346    1.6798 H   0  0  0  0  0  0  0  0  0  0  0  0
    6.0852    5.0333    1.3492 H   0  0  0  0  0  0  0  0  0  0  0  0
    5.1793    4.6951   -0.6946 H   0  0  0  0  0  0  0  0  0  0  0  0
    6.5760    0.0000   -0.8104 H   0  0  0  0  0  0  0  0  0  0  0  0
    6.1546    1.6627   -2.2697 H   0  0  0  0  0  0  0  0  0  0  0  0
   10.0526    6.9577   -2.9377 H   0  0  0  0  0  0  0  0  0  0  0  0
    9.5570    8.3493    2.2315 H   0  0  0  0  0  0  0  0  0  0  0  0
    9.8453   11.5161    2.0240 H   0  0  0  0  0  0  0  0  0  0  0  0
   10.1763   12.4700   -0.0681 H   0  0  0  0  0  0  0  0  0  0  0  0
    6.6177    7.3374   -1.7389 H   0  0  0  0  0  0  0  0  0  0  0  0
    3.2421    9.8013    2.6698 H   0  0  0  0  0  0  0  0  0  0  0  0
    7.4639    6.4404    3.1640 H   0  0  0  0  0  0  0  0  0  0  0  0
    4.8849    1.5312    1.4046 H   0  0  0  0  0  0  0  0  0  0  0  0
    0.4260    0.9720   -2.6390 H   0  0  0  0  0  0  0  0  0  0  0  0
    5.0407    3.7544   -3.2304 H   0  0  0  0  0  0  0  0  0  0  0  0
    9.3382    1.4014   -2.4543 H   0  0  0  0  0  0  0  0  0  0  0  0
    9.6789    0.2043   -0.5288 H   0  0  0  0  0  0  0  0  0  0  0  0
   13.2649    0.9873   -1.4293 H   0  0  0  0  0  0  0  0  0  0  0  0
   16.1347    4.6231   -0.3028 H   0  0  0  0  0  0  0  0  0  0  0  0
   16.0869    2.4353   -1.0820 H   0  0  0  0  0  0  0  0  0  0  0  0
  1  2  1  0  0  0  0
  1  3  1  0  0  0  0
  1  4  1  0  0  0  0
  1 39  1  6  0  0  0
  2  5  1  0  0  0  0
  2 32  1  0  0  0  0
  2 40  1  1  0  0  0
  3  6  1  0  0  0  0
  3 30  1  0  0  0  0
  3 41  1  1  0  0  0
  4 12  1  0  0  0  0
  4 42  1  1  0  0  0
  4 43  1  6  0  0  0
  5 21  1  1  0  0  0
  5 44  1  0  0  0  0
  5 45  1  6  0  0  0
  6  7  2  0  0  0  0
  6 10  1  1  0  0  0
  7  8  1  0  0  0  0
  7 46  1  6  0  0  0
  8  9  2  0  0  0  0
  9 10  1  1  0  0  0
  9 11  1  0  0  0  0
 10 47  1  1  0  0  0
 11 48  1  1  0  0  0
 11 49  1  6  0  0  0
 12 13  1  1  0  0  0
 12 50  1  6  0  0  0
 13 14  2  0  0  0  0
 13 15  1  1  0  0  0
 15 16  2  0  0  0  0
 15 19  1  1  0  0  0
 16 17  1  1  0  0  0
 16 51  1  0  0  0  0
 17 18  2  0  0  0  0
 17 20  1  1  0  0  0
 18 19  1  6  0  0  0
 18 38  1  1  0  0  0
 19 52  1  0  0  0  0
 21 22  1  0  0  0  0
 21 53  1  1  0  0  0
 22 23  2  0  0  0  0
 22 24  1  6  0  0  0
 24 25  2  0  0  0  0
 24 28  1  6  0  0  0
 25 26  1  6  0  0  0
 25 54  1  0  0  0  0
 26 27  2  0  0  0  0
 26 29  1  6  0  0  0
 27 28  1  1  0  0  0
 27 37  1  6  0  0  0
 28 55  1  0  0  0  0
 30 31  2  0  0  0  0
 30 35  1  0  0  0  0
 31 32  1  0  0  0  0
 31 33  1  0  0  0  0
 32 56  1  6  0  0  0
 32 57  1  0  0  0  0
 33 34  1  0  0  0  0
 33 58  1  0  0  0  0
 34 35  2  0  0  0  0
 34 36  1  0  0  0  0
 36 59  1  0  0  0  0
 36 60  1  0  0  0  0
M  END
>  <Formula> (244)
C22H22Br4N10O2

>  <Name> (244)
DIBROMOANGELIFERIN ACETATE

>  <Compound classification> (244)
Heterocycle

>  <Microorganism> (244)
Bacillus subtilis

>  <Microorganism classification> (244)
Bac+

>  <Inhibition zone> (244)
14

>  <ADT evaluation> (244)
3

>  <Annotation> (244)
50 microgram/disk

>  <Method abbreviation> (244)
ADT

>  <Ref-Nr> (244)
6840

>  <Marker> (244)
0

>  <Method> (244)
Agar diffusion test; Medium: nutrient agar; Inoculum size: ---; disk diameter: 6,5mm; Incubation temperature: -- degrees Centigrade; Incubation time: ---; compound dose: ---; Solubility enhancer: ---

>  <Reference> (244)
Rinehart, K.L.: Bioactive Metabolites from the Caribbean Sponge Agelas coniferin; US 4,737,510  (1988)

>  <mol_id> (244)
4027

>  <MolWeight> (244)
778.09

>  <Nickname> (244)
Dibromoangeliferin Acetate

$$$$

csChmFindW11180110282D

 60 64  0  0  0  0  0  0  0  0999 V2000
    7.9301    4.3082   -0.5911 C   0  0  0  0  0  0  0  0  0  0  0  0
    7.9138    2.3619   -0.2509 C   0  0  0  0  0  0  0  0  0  0  0  0
    9.4968    5.1280    0.2740 C   0  0  0  0  0  0  0  0  0  0  0  0
    6.2987    5.2331   -0.0276 C   0  0  0  0  0  0  0  0  0  0  0  0
    6.3384    1.3938   -0.9014 C   0  0  0  0  0  0  0  0  0  0  0  0
    9.7331    6.9694   -0.1555 C   0  0  0  0  0  0  0  0  0  0  0  0
    9.9793    7.6613   -1.7380 C   0  0  0  0  0  0  0  0  0  0  0  0
   10.1248    9.3868   -1.6680 N   0  0  0  0  0  0  0  0  0  0  0  0
    9.9629    9.8066   -0.0305 C   0  0  0  0  0  0  0  0  0  0  0  0
    9.7266    8.3784    0.9153 N   0  0  0  0  0  0  0  0  0  0  0  0
   10.0062   11.3997    0.7068 N   0  0  0  0  0  0  0  0  0  0  0  0
    6.3279    7.0264   -0.5299 N   0  0  0  0  0  0  0  0  0  0  0  0
    5.7925    8.3393    0.4625 C   0  0  0  0  0  0  0  0  0  0  0  0
    5.5949    9.7302   -0.1936 O   0  0  0  0  0  0  0  0  0  0  0  0
    5.4861    8.1380    2.3078 C   0  0  0  0  0  0  0  0  0  0  0  0
    4.1974    8.9366    3.1991 C   0  0  0  0  0  0  0  0  0  0  0  0
    4.3461    8.4292    4.9086 C   0  0  0  0  0  0  0  0  0  0  0  0
    5.7189    7.3365    5.0399 C   0  0  0  0  0  0  0  0  0  0  0  0
    6.3938    7.1711    3.4520 N   0  0  0  0  0  0  0  0  0  0  0  0
    2.8909    9.1602    6.6516 Br  0  0  0  0  0  0  0  0  0  0  0  0
    4.8256    1.7056    0.1365 N   0  0  0  0  0  0  0  0  0  0  0  0
    3.2351    1.9677   -0.4972 C   0  0  0  0  0  0  0  0  0  0  0  0
    2.0421    1.9664    0.4936 O   0  0  0  0  0  0  0  0  0  0  0  0
    2.9017    2.2783   -2.3248 C   0  0  0  0  0  0  0  0  0  0  0  0
    1.4730    1.7129   -3.1823 C   0  0  0  0  0  0  0  0  0  0  0  0
    1.6165    2.2615   -4.8799 C   0  0  0  0  0  0  0  0  0  0  0  0
    3.1221    3.1563   -5.0402 C   0  0  0  0  0  0  0  0  0  0  0  0
    3.8853    3.1522   -3.4844 N   0  0  0  0  0  0  0  0  0  0  0  0
    0.0000    1.8124   -6.5755 Br  0  0  0  0  0  0  0  0  0  0  0  0
   11.0664    4.1484   -0.1564 C   0  0  0  0  0  0  0  0  0  0  0  0
   11.0692    2.5140   -0.7454 C   0  0  0  0  0  0  0  0  0  0  0  0
    9.4932    1.5067   -1.0511 C   0  0  0  0  0  0  0  0  0  0  0  0
   12.7766    2.1355   -0.9776 N   0  0  0  0  0  0  0  0  0  0  0  0
   13.7078    3.5225   -0.5260 C   0  0  0  0  0  0  0  0  0  0  0  0
   12.6749    4.7706   -0.0121 N   0  0  0  0  0  0  0  0  0  0  0  0
   15.4600    3.5261   -0.6438 N   0  0  0  0  0  0  0  0  0  0  0  0
    4.0521    4.2036   -6.9614 Br  0  0  0  0  0  0  0  0  0  0  0  0
    6.5740    6.2280    6.9614 Br  0  0  0  0  0  0  0  0  0  0  0  0
    8.0450    4.4728   -1.9976 H   0  0  0  0  0  0  0  0  0  0  0  0
    7.9815    2.1780    1.1568 H   0  0  0  0  0  0  0  0  0  0  0  0
    9.3384    5.0346    1.6798 H   0  0  0  0  0  0  0  0  0  0  0  0
    6.0852    5.0333    1.3492 H   0  0  0  0  0  0  0  0  0  0  0  0
    5.1793    4.6951   -0.6946 H   0  0  0  0  0  0  0  0  0  0  0  0
    6.5760    0.0000   -0.8104 H   0  0  0  0  0  0  0  0  0  0  0  0
    6.1546    1.6627   -2.2697 H   0  0  0  0  0  0  0  0  0  0  0  0
   10.0526    6.9577   -2.9377 H   0  0  0  0  0  0  0  0  0  0  0  0
    9.5570    8.3493    2.2315 H   0  0  0  0  0  0  0  0  0  0  0  0
    9.8453   11.5161    2.0240 H   0  0  0  0  0  0  0  0  0  0  0  0
   10.1763   12.4700   -0.0681 H   0  0  0  0  0  0  0  0  0  0  0  0
    6.6177    7.3374   -1.7389 H   0  0  0  0  0  0  0  0  0  0  0  0
    3.2421    9.8013    2.6698 H   0  0  0  0  0  0  0  0  0  0  0  0
    7.4639    6.4404    3.1640 H   0  0  0  0  0  0  0  0  0  0  0  0
    4.8849    1.5312    1.4046 H   0  0  0  0  0  0  0  0  0  0  0  0
    0.4260    0.9720   -2.6390 H   0  0  0  0  0  0  0  0  0  0  0  0
    5.0407    3.7544   -3.2304 H   0  0  0  0  0  0  0  0  0  0  0  0
    9.3382    1.4014   -2.4543 H   0  0  0  0  0  0  0  0  0  0  0  0
    9.6789    0.2043   -0.5288 H   0  0  0  0  0  0  0  0  0  0  0  0
   13.2649    0.9873   -1.4293 H   0  0  0  0  0  0  0  0  0  0  0  0
   16.1347    4.6231   -0.3028 H   0  0  0  0  0  0  0  0  0  0  0  0
   16.0869    2.4353   -1.0820 H   0  0  0  0  0  0  0  0  0  0  0  0
  1  2  1  0  0  0  0
  1  3  1  0  0  0  0
  1  4  1  0  0  0  0
  1 39  1  6  0  0  0
  2  5  1  0  0  0  0
  2 32  1  0  0  0  0
  2 40  1  1  0  0  0
  3  6  1  0  0  0  0
  3 30  1  0  0  0  0
  3 41  1  1  0  0  0
  4 12  1  0  0  0  0
  4 42  1  1  0  0  0
  4 43  1  6  0  0  0
  5 21  1  1  0  0  0
  5 44  1  0  0  0  0
  5 45  1  6  0  0  0
  6  7  2  0  0  0  0
  6 10  1  1  0  0  0
  7  8  1  0  0  0  0
  7 46  1  6  0  0  0
  8  9  2  0  0  0  0
  9 10  1  1  0  0  0
  9 11  1  0  0  0  0
 10 47  1  1  0  0  0
 11 48  1  1  0  0  0
 11 49  1  6  0  0  0
 12 13  1  1  0  0  0
 12 50  1  6  0  0  0
 13 14  2  0  0  0  0
 13 15  1  1  0  0  0
 15 16  2  0  0  0  0
 15 19  1  1  0  0  0
 16 17  1  1  0  0  0
 16 51  1  0  0  0  0
 17 18  2  0  0  0  0
 17 20  1  1  0  0  0
 18 19  1  6  0  0  0
 18 38  1  1  0  0  0
 19 52  1  0  0  0  0
 21 22  1  0  0  0  0
 21 53  1  1  0  0  0
 22 23  2  0  0  0  0
 22 24  1  6  0  0  0
 24 25  2  0  0  0  0
 24 28  1  6  0  0  0
 25 26  1  6  0  0  0
 25 54  1  0  0  0  0
 26 27  2  0  0  0  0
 26 29  1  6  0  0  0
 27 28  1  1  0  0  0
 27 37  1  6  0  0  0
 28 55  1  0  0  0  0
 30 31  2  0  0  0  0
 30 35  1  0  0  0  0
 31 32  1  0  0  0  0
 31 33  1  0  0  0  0
 32 56  1  6  0  0  0
 32 57  1  0  0  0  0
 33 34  1  0  0  0  0
 33 58  1  0  0  0  0
 34 35  2  0  0  0  0
 34 36  1  0  0  0  0
 36 59  1  0  0  0  0
 36 60  1  0  0  0  0
M  END
>  <Formula> (245)
C22H22Br4N10O2

>  <Name> (245)
DIBROMOANGELIFERIN ACETATE

>  <Compound classification> (245)
Heterocycle

>  <Microorganism> (245)
Eschericia coli

>  <Microorganism classification> (245)
Bac-

>  <Inhibition zone> (245)
8

>  <ADT evaluation> (245)
3

>  <Annotation> (245)
50 microgram/disk

>  <Method abbreviation> (245)
ADT

>  <Ref-Nr> (245)
6840

>  <Marker> (245)
0

>  <Method> (245)
Agar diffusion test; Medium: nutrient agar; Inoculum size: ---; disk diameter: 6,5mm; Incubation temperature: -- degrees Centigrade; Incubation time: ---; compound dose: ---; Solubility enhancer: ---

>  <Reference> (245)
Rinehart, K.L.: Bioactive Metabolites from the Caribbean Sponge Agelas coniferin; US 4,737,510  (1988)

>  <mol_id> (245)
4027

>  <MolWeight> (245)
778.09

>  <Nickname> (245)
Dibromoangeliferin Acetate

$$$$

csChmFindW11180110282D

 60 64  0  0  0  0  0  0  0  0999 V2000
    7.9301    4.3082   -0.5911 C   0  0  0  0  0  0  0  0  0  0  0  0
    7.9138    2.3619   -0.2509 C   0  0  0  0  0  0  0  0  0  0  0  0
    9.4968    5.1280    0.2740 C   0  0  0  0  0  0  0  0  0  0  0  0
    6.2987    5.2331   -0.0276 C   0  0  0  0  0  0  0  0  0  0  0  0
    6.3384    1.3938   -0.9014 C   0  0  0  0  0  0  0  0  0  0  0  0
    9.7331    6.9694   -0.1555 C   0  0  0  0  0  0  0  0  0  0  0  0
    9.9793    7.6613   -1.7380 C   0  0  0  0  0  0  0  0  0  0  0  0
   10.1248    9.3868   -1.6680 N   0  0  0  0  0  0  0  0  0  0  0  0
    9.9629    9.8066   -0.0305 C   0  0  0  0  0  0  0  0  0  0  0  0
    9.7266    8.3784    0.9153 N   0  0  0  0  0  0  0  0  0  0  0  0
   10.0062   11.3997    0.7068 N   0  0  0  0  0  0  0  0  0  0  0  0
    6.3279    7.0264   -0.5299 N   0  0  0  0  0  0  0  0  0  0  0  0
    5.7925    8.3393    0.4625 C   0  0  0  0  0  0  0  0  0  0  0  0
    5.5949    9.7302   -0.1936 O   0  0  0  0  0  0  0  0  0  0  0  0
    5.4861    8.1380    2.3078 C   0  0  0  0  0  0  0  0  0  0  0  0
    4.1974    8.9366    3.1991 C   0  0  0  0  0  0  0  0  0  0  0  0
    4.3461    8.4292    4.9086 C   0  0  0  0  0  0  0  0  0  0  0  0
    5.7189    7.3365    5.0399 C   0  0  0  0  0  0  0  0  0  0  0  0
    6.3938    7.1711    3.4520 N   0  0  0  0  0  0  0  0  0  0  0  0
    2.8909    9.1602    6.6516 Br  0  0  0  0  0  0  0  0  0  0  0  0
    4.8256    1.7056    0.1365 N   0  0  0  0  0  0  0  0  0  0  0  0
    3.2351    1.9677   -0.4972 C   0  0  0  0  0  0  0  0  0  0  0  0
    2.0421    1.9664    0.4936 O   0  0  0  0  0  0  0  0  0  0  0  0
    2.9017    2.2783   -2.3248 C   0  0  0  0  0  0  0  0  0  0  0  0
    1.4730    1.7129   -3.1823 C   0  0  0  0  0  0  0  0  0  0  0  0
    1.6165    2.2615   -4.8799 C   0  0  0  0  0  0  0  0  0  0  0  0
    3.1221    3.1563   -5.0402 C   0  0  0  0  0  0  0  0  0  0  0  0
    3.8853    3.1522   -3.4844 N   0  0  0  0  0  0  0  0  0  0  0  0
    0.0000    1.8124   -6.5755 Br  0  0  0  0  0  0  0  0  0  0  0  0
   11.0664    4.1484   -0.1564 C   0  0  0  0  0  0  0  0  0  0  0  0
   11.0692    2.5140   -0.7454 C   0  0  0  0  0  0  0  0  0  0  0  0
    9.4932    1.5067   -1.0511 C   0  0  0  0  0  0  0  0  0  0  0  0
   12.7766    2.1355   -0.9776 N   0  0  0  0  0  0  0  0  0  0  0  0
   13.7078    3.5225   -0.5260 C   0  0  0  0  0  0  0  0  0  0  0  0
   12.6749    4.7706   -0.0121 N   0  0  0  0  0  0  0  0  0  0  0  0
   15.4600    3.5261   -0.6438 N   0  0  0  0  0  0  0  0  0  0  0  0
    4.0521    4.2036   -6.9614 Br  0  0  0  0  0  0  0  0  0  0  0  0
    6.5740    6.2280    6.9614 Br  0  0  0  0  0  0  0  0  0  0  0  0
    8.0450    4.4728   -1.9976 H   0  0  0  0  0  0  0  0  0  0  0  0
    7.9815    2.1780    1.1568 H   0  0  0  0  0  0  0  0  0  0  0  0
    9.3384    5.0346    1.6798 H   0  0  0  0  0  0  0  0  0  0  0  0
    6.0852    5.0333    1.3492 H   0  0  0  0  0  0  0  0  0  0  0  0
    5.1793    4.6951   -0.6946 H   0  0  0  0  0  0  0  0  0  0  0  0
    6.5760    0.0000   -0.8104 H   0  0  0  0  0  0  0  0  0  0  0  0
    6.1546    1.6627   -2.2697 H   0  0  0  0  0  0  0  0  0  0  0  0
   10.0526    6.9577   -2.9377 H   0  0  0  0  0  0  0  0  0  0  0  0
    9.5570    8.3493    2.2315 H   0  0  0  0  0  0  0  0  0  0  0  0
    9.8453   11.5161    2.0240 H   0  0  0  0  0  0  0  0  0  0  0  0
   10.1763   12.4700   -0.0681 H   0  0  0  0  0  0  0  0  0  0  0  0
    6.6177    7.3374   -1.7389 H   0  0  0  0  0  0  0  0  0  0  0  0
    3.2421    9.8013    2.6698 H   0  0  0  0  0  0  0  0  0  0  0  0
    7.4639    6.4404    3.1640 H   0  0  0  0  0  0  0  0  0  0  0  0
    4.8849    1.5312    1.4046 H   0  0  0  0  0  0  0  0  0  0  0  0
    0.4260    0.9720   -2.6390 H   0  0  0  0  0  0  0  0  0  0  0  0
    5.0407    3.7544   -3.2304 H   0  0  0  0  0  0  0  0  0  0  0  0
    9.3382    1.4014   -2.4543 H   0  0  0  0  0  0  0  0  0  0  0  0
    9.6789    0.2043   -0.5288 H   0  0  0  0  0  0  0  0  0  0  0  0
   13.2649    0.9873   -1.4293 H   0  0  0  0  0  0  0  0  0  0  0  0
   16.1347    4.6231   -0.3028 H   0  0  0  0  0  0  0  0  0  0  0  0
   16.0869    2.4353   -1.0820 H   0  0  0  0  0  0  0  0  0  0  0  0
  1  2  1  0  0  0  0
  1  3  1  0  0  0  0
  1  4  1  0  0  0  0
  1 39  1  6  0  0  0
  2  5  1  0  0  0  0
  2 32  1  0  0  0  0
  2 40  1  1  0  0  0
  3  6  1  0  0  0  0
  3 30  1  0  0  0  0
  3 41  1  1  0  0  0
  4 12  1  0  0  0  0
  4 42  1  1  0  0  0
  4 43  1  6  0  0  0
  5 21  1  1  0  0  0
  5 44  1  0  0  0  0
  5 45  1  6  0  0  0
  6  7  2  0  0  0  0
  6 10  1  1  0  0  0
  7  8  1  0  0  0  0
  7 46  1  6  0  0  0
  8  9  2  0  0  0  0
  9 10  1  1  0  0  0
  9 11  1  0  0  0  0
 10 47  1  1  0  0  0
 11 48  1  1  0  0  0
 11 49  1  6  0  0  0
 12 13  1  1  0  0  0
 12 50  1  6  0  0  0
 13 14  2  0  0  0  0
 13 15  1  1  0  0  0
 15 16  2  0  0  0  0
 15 19  1  1  0  0  0
 16 17  1  1  0  0  0
 16 51  1  0  0  0  0
 17 18  2  0  0  0  0
 17 20  1  1  0  0  0
 18 19  1  6  0  0  0
 18 38  1  1  0  0  0
 19 52  1  0  0  0  0
 21 22  1  0  0  0  0
 21 53  1  1  0  0  0
 22 23  2  0  0  0  0
 22 24  1  6  0  0  0
 24 25  2  0  0  0  0
 24 28  1  6  0  0  0
 25 26  1  6  0  0  0
 25 54  1  0  0  0  0
 26 27  2  0  0  0  0
 26 29  1  6  0  0  0
 27 28  1  1  0  0  0
 27 37  1  6  0  0  0
 28 55  1  0  0  0  0
 30 31  2  0  0  0  0
 30 35  1  0  0  0  0
 31 32  1  0  0  0  0
 31 33  1  0  0  0  0
 32 56  1  6  0  0  0
 32 57  1  0  0  0  0
 33 34  1  0  0  0  0
 33 58  1  0  0  0  0
 34 35  2  0  0  0  0
 34 36  1  0  0  0  0
 36 59  1  0  0  0  0
 36 60  1  0  0  0  0
M  END
>  <Formula> (246)
C22H22Br4N10O2

>  <Name> (246)
DIBROMOANGELIFERIN ACETATE

>  <Compound classification> (246)
Heterocycle

>  <Microorganism> (246)
Penicillium melinii

>  <Publication strain name> (246)
Penicillium atrovenetum

>  <Microorganism classification> (246)
fungi

>  <Inhibition zone> (246)
0

>  <ADT evaluation> (246)
1

>  <Annotation> (246)
200 microgram/disk

>  <Method abbreviation> (246)
ADT

>  <Ref-Nr> (246)
6840

>  <Marker> (246)
0

>  <Method> (246)
Agar diffusion test; Medium: nutrient agar; Inoculum size: ---; disk diameter: 6,5mm; Incubation temperature: -- degrees Centigrade; Incubation time: ---; compound dose: ---; Solubility enhancer: ---

>  <Reference> (246)
Rinehart, K.L.: Bioactive Metabolites from the Caribbean Sponge Agelas coniferin; US 4,737,510  (1988)

>  <mol_id> (246)
4027

>  <MolWeight> (246)
778.09

>  <Nickname> (246)
Dibromoangeliferin Acetate

$$$$

csChmFindW11180110282D

 60 64  0  0  0  0  0  0  0  0999 V2000
    7.9301    4.3082   -0.5911 C   0  0  0  0  0  0  0  0  0  0  0  0
    7.9138    2.3619   -0.2509 C   0  0  0  0  0  0  0  0  0  0  0  0
    9.4968    5.1280    0.2740 C   0  0  0  0  0  0  0  0  0  0  0  0
    6.2987    5.2331   -0.0276 C   0  0  0  0  0  0  0  0  0  0  0  0
    6.3384    1.3938   -0.9014 C   0  0  0  0  0  0  0  0  0  0  0  0
    9.7331    6.9694   -0.1555 C   0  0  0  0  0  0  0  0  0  0  0  0
    9.9793    7.6613   -1.7380 C   0  0  0  0  0  0  0  0  0  0  0  0
   10.1248    9.3868   -1.6680 N   0  0  0  0  0  0  0  0  0  0  0  0
    9.9629    9.8066   -0.0305 C   0  0  0  0  0  0  0  0  0  0  0  0
    9.7266    8.3784    0.9153 N   0  0  0  0  0  0  0  0  0  0  0  0
   10.0062   11.3997    0.7068 N   0  0  0  0  0  0  0  0  0  0  0  0
    6.3279    7.0264   -0.5299 N   0  0  0  0  0  0  0  0  0  0  0  0
    5.7925    8.3393    0.4625 C   0  0  0  0  0  0  0  0  0  0  0  0
    5.5949    9.7302   -0.1936 O   0  0  0  0  0  0  0  0  0  0  0  0
    5.4861    8.1380    2.3078 C   0  0  0  0  0  0  0  0  0  0  0  0
    4.1974    8.9366    3.1991 C   0  0  0  0  0  0  0  0  0  0  0  0
    4.3461    8.4292    4.9086 C   0  0  0  0  0  0  0  0  0  0  0  0
    5.7189    7.3365    5.0399 C   0  0  0  0  0  0  0  0  0  0  0  0
    6.3938    7.1711    3.4520 N   0  0  0  0  0  0  0  0  0  0  0  0
    2.8909    9.1602    6.6516 Br  0  0  0  0  0  0  0  0  0  0  0  0
    4.8256    1.7056    0.1365 N   0  0  0  0  0  0  0  0  0  0  0  0
    3.2351    1.9677   -0.4972 C   0  0  0  0  0  0  0  0  0  0  0  0
    2.0421    1.9664    0.4936 O   0  0  0  0  0  0  0  0  0  0  0  0
    2.9017    2.2783   -2.3248 C   0  0  0  0  0  0  0  0  0  0  0  0
    1.4730    1.7129   -3.1823 C   0  0  0  0  0  0  0  0  0  0  0  0
    1.6165    2.2615   -4.8799 C   0  0  0  0  0  0  0  0  0  0  0  0
    3.1221    3.1563   -5.0402 C   0  0  0  0  0  0  0  0  0  0  0  0
    3.8853    3.1522   -3.4844 N   0  0  0  0  0  0  0  0  0  0  0  0
    0.0000    1.8124   -6.5755 Br  0  0  0  0  0  0  0  0  0  0  0  0
   11.0664    4.1484   -0.1564 C   0  0  0  0  0  0  0  0  0  0  0  0
   11.0692    2.5140   -0.7454 C   0  0  0  0  0  0  0  0  0  0  0  0
    9.4932    1.5067   -1.0511 C   0  0  0  0  0  0  0  0  0  0  0  0
   12.7766    2.1355   -0.9776 N   0  0  0  0  0  0  0  0  0  0  0  0
   13.7078    3.5225   -0.5260 C   0  0  0  0  0  0  0  0  0  0  0  0
   12.6749    4.7706   -0.0121 N   0  0  0  0  0  0  0  0  0  0  0  0
   15.4600    3.5261   -0.6438 N   0  0  0  0  0  0  0  0  0  0  0  0
    4.0521    4.2036   -6.9614 Br  0  0  0  0  0  0  0  0  0  0  0  0
    6.5740    6.2280    6.9614 Br  0  0  0  0  0  0  0  0  0  0  0  0
    8.0450    4.4728   -1.9976 H   0  0  0  0  0  0  0  0  0  0  0  0
    7.9815    2.1780    1.1568 H   0  0  0  0  0  0  0  0  0  0  0  0
    9.3384    5.0346    1.6798 H   0  0  0  0  0  0  0  0  0  0  0  0
    6.0852    5.0333    1.3492 H   0  0  0  0  0  0  0  0  0  0  0  0
    5.1793    4.6951   -0.6946 H   0  0  0  0  0  0  0  0  0  0  0  0
    6.5760    0.0000   -0.8104 H   0  0  0  0  0  0  0  0  0  0  0  0
    6.1546    1.6627   -2.2697 H   0  0  0  0  0  0  0  0  0  0  0  0
   10.0526    6.9577   -2.9377 H   0  0  0  0  0  0  0  0  0  0  0  0
    9.5570    8.3493    2.2315 H   0  0  0  0  0  0  0  0  0  0  0  0
    9.8453   11.5161    2.0240 H   0  0  0  0  0  0  0  0  0  0  0  0
   10.1763   12.4700   -0.0681 H   0  0  0  0  0  0  0  0  0  0  0  0
    6.6177    7.3374   -1.7389 H   0  0  0  0  0  0  0  0  0  0  0  0
    3.2421    9.8013    2.6698 H   0  0  0  0  0  0  0  0  0  0  0  0
    7.4639    6.4404    3.1640 H   0  0  0  0  0  0  0  0  0  0  0  0
    4.8849    1.5312    1.4046 H   0  0  0  0  0  0  0  0  0  0  0  0
    0.4260    0.9720   -2.6390 H   0  0  0  0  0  0  0  0  0  0  0  0
    5.0407    3.7544   -3.2304 H   0  0  0  0  0  0  0  0  0  0  0  0
    9.3382    1.4014   -2.4543 H   0  0  0  0  0  0  0  0  0  0  0  0
    9.6789    0.2043   -0.5288 H   0  0  0  0  0  0  0  0  0  0  0  0
   13.2649    0.9873   -1.4293 H   0  0  0  0  0  0  0  0  0  0  0  0
   16.1347    4.6231   -0.3028 H   0  0  0  0  0  0  0  0  0  0  0  0
   16.0869    2.4353   -1.0820 H   0  0  0  0  0  0  0  0  0  0  0  0
  1  2  1  0  0  0  0
  1  3  1  0  0  0  0
  1  4  1  0  0  0  0
  1 39  1  6  0  0  0
  2  5  1  0  0  0  0
  2 32  1  0  0  0  0
  2 40  1  1  0  0  0
  3  6  1  0  0  0  0
  3 30  1  0  0  0  0
  3 41  1  1  0  0  0
  4 12  1  0  0  0  0
  4 42  1  1  0  0  0
  4 43  1  6  0  0  0
  5 21  1  1  0  0  0
  5 44  1  0  0  0  0
  5 45  1  6  0  0  0
  6  7  2  0  0  0  0
  6 10  1  1  0  0  0
  7  8  1  0  0  0  0
  7 46  1  6  0  0  0
  8  9  2  0  0  0  0
  9 10  1  1  0  0  0
  9 11  1  0  0  0  0
 10 47  1  1  0  0  0
 11 48  1  1  0  0  0
 11 49  1  6  0  0  0
 12 13  1  1  0  0  0
 12 50  1  6  0  0  0
 13 14  2  0  0  0  0
 13 15  1  1  0  0  0
 15 16  2  0  0  0  0
 15 19  1  1  0  0  0
 16 17  1  1  0  0  0
 16 51  1  0  0  0  0
 17 18  2  0  0  0  0
 17 20  1  1  0  0  0
 18 19  1  6  0  0  0
 18 38  1  1  0  0  0
 19 52  1  0  0  0  0
 21 22  1  0  0  0  0
 21 53  1  1  0  0  0
 22 23  2  0  0  0  0
 22 24  1  6  0  0  0
 24 25  2  0  0  0  0
 24 28  1  6  0  0  0
 25 26  1  6  0  0  0
 25 54  1  0  0  0  0
 26 27  2  0  0  0  0
 26 29  1  6  0  0  0
 27 28  1  1  0  0  0
 27 37  1  6  0  0  0
 28 55  1  0  0  0  0
 30 31  2  0  0  0  0
 30 35  1  0  0  0  0
 31 32  1  0  0  0  0
 31 33  1  0  0  0  0
 32 56  1  6  0  0  0
 32 57  1  0  0  0  0
 33 34  1  0  0  0  0
 33 58  1  0  0  0  0
 34 35  2  0  0  0  0
 34 36  1  0  0  0  0
 36 59  1  0  0  0  0
 36 60  1  0  0  0  0
M  END
>  <Formula> (247)
C22H22Br4N10O2

>  <Name> (247)
DIBROMOANGELIFERIN ACETATE

>  <Compound classification> (247)
Heterocycle

>  <Microorganism> (247)
Saccharomyces cerevisiae

>  <Microorganism classification> (247)
yeast

>  <Inhibition zone> (247)
0

>  <ADT evaluation> (247)
1

>  <Annotation> (247)
200 microgram/disk

>  <Method abbreviation> (247)
ADT

>  <Ref-Nr> (247)
6840

>  <Marker> (247)
0

>  <Method> (247)
Agar diffusion test; Medium: nutrient agar; Inoculum size: ---; disk diameter: 6,5mm; Incubation temperature: -- degrees Centigrade; Incubation time: ---; compound dose: ---; Solubility enhancer: ---

>  <Reference> (247)
Rinehart, K.L.: Bioactive Metabolites from the Caribbean Sponge Agelas coniferin; US 4,737,510  (1988)

>  <mol_id> (247)
4027

>  <MolWeight> (247)
778.09

>  <Nickname> (247)
Dibromoangeliferin Acetate

$$$$

csChmFindW11180110282D

 76 78  0  0  0  0  0  0  0  0999 V2000
   14.0879    5.6417   -1.0658 C   0  0  0  0  0  0  0  0  0  0  0  0
   16.1010    4.8369   -1.1559 C   0  0  0  0  0  0  0  0  0  0  0  0
   17.3773    5.6823    0.3998 C   0  0  0  0  0  0  0  0  0  0  0  0
   17.2012    7.8685    0.3935 C   0  0  0  0  0  0  0  0  0  0  0  0
   15.1150    8.3995    0.5805 C   0  0  0  0  0  0  0  0  0  0  0  0
   13.9946    7.6217   -0.8850 O   0  0  0  0  0  0  0  0  0  0  0  0
   17.9881    8.6292   -1.2794 O   0  0  0  0  0  0  0  0  0  0  0  0
   18.2938    8.7455    2.0176 C   0  0  0  0  0  0  0  0  0  0  0  0
   19.2927    4.9925    0.1864 N   0  0  0  0  0  0  0  0  0  0  0  0
   20.2169    4.4635    1.9074 C   0  0  0  0  0  0  0  0  0  0  0  0
   16.7440    5.2741   -2.9980 O   0  0  0  0  0  0  0  0  0  0  0  0
   13.2116    4.9495    0.5864 O   0  0  0  0  0  0  0  0  0  0  0  0
    7.9444    5.2945   -0.0824 C   0  0  0  0  0  0  0  0  0  0  0  0
   10.0040    5.9498   -0.1659 C   0  0  0  0  0  0  0  0  0  0  0  0
   11.3163    4.3267    0.4106 C   0  0  0  0  0  0  0  0  0  0  0  0
   11.0603    2.6474   -0.9487 C   0  0  0  0  0  0  0  0  0  0  0  0
    8.9956    2.0130   -0.8093 C   0  0  0  0  0  0  0  0  0  0  0  0
    7.6082    3.5654   -1.3802 C   0  0  0  0  0  0  0  0  0  0  0  0
   12.4375    1.1749   -0.6271 N   0  0  0  0  0  0  0  0  0  0  0  0
    7.6206    3.9389   -3.3833 N   0  0  0  0  0  0  0  0  0  0  0  0
   10.1943    7.4639    1.1224 O   0  0  0  0  0  0  0  0  0  0  0  0
    6.7412    6.7596   -0.7547 O   0  0  0  0  0  0  0  0  0  0  0  0
    2.5947    9.4038    2.1416 C   0  0  0  0  0  0  0  0  0  0  0  0
    3.9283   10.7275    1.1347 C   0  0  0  0  0  0  0  0  0  0  0  0
    5.0443    9.6361   -0.3608 C   0  0  0  0  0  0  0  0  0  0  0  0
    6.0425    7.9728    0.6614 C   0  0  0  0  0  0  0  0  0  0  0  0
    4.7440    6.7864    1.6259 O   0  0  0  0  0  0  0  0  0  0  0  0
    3.6797    7.7767    3.0191 C   0  0  0  0  0  0  0  0  0  0  0  0
    2.3745    6.3094    3.9802 C   0  0  0  0  0  0  0  0  0  0  0  0
    3.3743    4.8401    5.0011 N   0  0  0  0  0  0  0  0  0  0  0  0
    4.4070    5.4650    6.6249 C   0  0  0  0  0  0  0  0  0  0  0  0
    1.0254    5.4533    2.5377 C   0  0  0  0  0  0  0  0  0  0  0  0
    6.3002   10.8247   -1.4326 N   0  0  0  0  0  0  0  0  0  0  0  0
   13.3035    5.3193   -2.4038 H   0  0  0  0  0  0  0  0  0  0  0  0
   16.0146    3.2644   -0.9678 H   0  0  0  0  0  0  0  0  0  0  0  0
   16.7670    5.1737    1.7799 H   0  0  0  0  0  0  0  0  0  0  0  0
   14.9276    9.9598    0.4059 H   0  0  0  0  0  0  0  0  0  0  0  0
   14.5666    7.9229    1.9823 H   0  0  0  0  0  0  0  0  0  0  0  0
   17.2117    8.1974   -2.3154 H   0  0  0  0  0  0  0  0  0  0  0  0
   17.9406   10.2729    2.1330 H   0  0  0  0  0  0  0  0  0  0  0  0
   19.8393    8.6205    1.7616 H   0  0  0  0  0  0  0  0  0  0  0  0
   17.9244    8.0238    3.3619 H   0  0  0  0  0  0  0  0  0  0  0  0
   20.0572    5.9346   -0.5418 H   0  0  0  0  0  0  0  0  0  0  0  0
   21.6665    3.9455    1.5521 H   0  0  0  0  0  0  0  0  0  0  0  0
   19.4125    3.2873    2.5895 H   0  0  0  0  0  0  0  0  0  0  0  0
   20.3492    5.6437    2.9563 H   0  0  0  0  0  0  0  0  0  0  0  0
   17.9183    4.6133   -3.1740 H   0  0  0  0  0  0  0  0  0  0  0  0
    7.5730    4.9117    1.4067 H   0  0  0  0  0  0  0  0  0  0  0  0
   10.3696    6.4577   -1.6227 H   0  0  0  0  0  0  0  0  0  0  0  0
   10.9773    3.8826    1.9005 H   0  0  0  0  0  0  0  0  0  0  0  0
   11.3229    3.1514   -2.4377 H   0  0  0  0  0  0  0  0  0  0  0  0
    8.6694    1.5873    0.6755 H   0  0  0  0  0  0  0  0  0  0  0  0
    8.7653    0.7529   -1.7332 H   0  0  0  0  0  0  0  0  0  0  0  0
    6.1386    3.0442   -1.0399 H   0  0  0  0  0  0  0  0  0  0  0  0
   12.0615    0.0000   -1.3098 H   0  0  0  0  0  0  0  0  0  0  0  0
   12.5649    0.8936    0.7479 H   0  0  0  0  0  0  0  0  0  0  0  0
    8.8571    4.4837   -3.7867 H   0  0  0  0  0  0  0  0  0  0  0  0
    6.5981    4.8617   -3.6955 H   0  0  0  0  0  0  0  0  0  0  0  0
   11.4993    7.8577    1.0598 H   0  0  0  0  0  0  0  0  0  0  0  0
    1.5374    8.8469    1.1103 H   0  0  0  0  0  0  0  0  0  0  0  0
    1.8147   10.1786    3.2715 H   0  0  0  0  0  0  0  0  0  0  0  0
    4.9173   11.3900    2.1714 H   0  0  0  0  0  0  0  0  0  0  0  0
    3.1124   11.8864    0.4420 H   0  0  0  0  0  0  0  0  0  0  0  0
    4.0132    8.9956   -1.3915 H   0  0  0  0  0  0  0  0  0  0  0  0
    7.1835    8.4571    1.6483 H   0  0  0  0  0  0  0  0  0  0  0  0
    4.6937    8.3627    4.0951 H   0  0  0  0  0  0  0  0  0  0  0  0
    1.5172    7.1262    5.0460 H   0  0  0  0  0  0  0  0  0  0  0  0
    4.2111    4.1305    4.1108 H   0  0  0  0  0  0  0  0  0  0  0  0
    4.9738    4.1891    7.3657 H   0  0  0  0  0  0  0  0  0  0  0  0
    3.4332    6.2271    7.6074 H   0  0  0  0  0  0  0  0  0  0  0  0
    5.6238    6.4248    6.2956 H   0  0  0  0  0  0  0  0  0  0  0  0
    0.2186    4.2591    3.1658 H   0  0  0  0  0  0  0  0  0  0  0  0
    1.8201    4.9310    1.2863 H   0  0  0  0  0  0  0  0  0  0  0  0
    0.0000    6.5476    2.0697 H   0  0  0  0  0  0  0  0  0  0  0  0
    6.9902   10.0482   -2.3872 H   0  0  0  0  0  0  0  0  0  0  0  0
    7.2382   11.4547   -0.5891 H   0  0  0  0  0  0  0  0  0  0  0  0
  1  2  1  0  0  0  0
  1  6  1  0  0  0  0
  1 12  1  1  0  0  0
  1 34  1  6  0  0  0
  2  3  1  1  0  0  0
  2 11  1  6  0  0  0
  2 35  1  0  0  0  0
  3  4  1  0  0  0  0
  3  9  1  0  0  0  0
  3 36  1  1  0  0  0
  4  5  1  0  0  0  0
  4  7  1  6  0  0  0
  4  8  1  1  0  0  0
  5  6  1  6  0  0  0
  5 37  1  0  0  0  0
  5 38  1  1  0  0  0
  7 39  1  6  0  0  0
  8 40  1  0  0  0  0
  8 41  1  0  0  0  0
  8 42  1  1  0  0  0
  9 10  1  1  0  0  0
  9 43  1  6  0  0  0
 10 44  1  0  0  0  0
 10 45  1  0  0  0  0
 10 46  1  1  0  0  0
 11 47  1  0  0  0  0
 12 15  1  0  0  0  0
 13 14  1  0  0  0  0
 13 18  1  6  0  0  0
 13 22  1  0  0  0  0
 13 48  1  1  0  0  0
 14 15  1  0  0  0  0
 14 21  1  1  0  0  0
 14 49  1  6  0  0  0
 15 16  1  6  0  0  0
 15 50  1  1  0  0  0
 16 17  1  0  0  0  0
 16 19  1  0  0  0  0
 16 51  1  6  0  0  0
 17 18  1  0  0  0  0
 17 52  1  1  0  0  0
 17 53  1  6  0  0  0
 18 20  1  6  0  0  0
 18 54  1  0  0  0  0
 19 55  1  6  0  0  0
 19 56  1  1  0  0  0
 20 57  1  0  0  0  0
 20 58  1  0  0  0  0
 21 59  1  0  0  0  0
 22 26  1  1  0  0  0
 23 24  1  6  0  0  0
 23 28  1  0  0  0  0
 23 60  1  6  0  0  0
 23 61  1  1  0  0  0
 24 25  1  6  0  0  0
 24 62  1  1  0  0  0
 24 63  1  0  0  0  0
 25 26  1  1  0  0  0
 25 33  1  6  0  0  0
 25 64  1  6  0  0  0
 26 27  1  1  0  0  0
 26 65  1  1  0  0  0
 27 28  1  1  0  0  0
 28 29  1  0  0  0  0
 28 66  1  1  0  0  0
 29 30  1  1  0  0  0
 29 32  1  6  0  0  0
 29 67  1  1  0  0  0
 30 31  1  1  0  0  0
 30 68  1  6  0  0  0
 31 69  1  1  0  0  0
 31 70  1  1  0  0  0
 31 71  1  0  0  0  0
 32 72  1  0  0  0  0
 32 73  1  6  0  0  0
 32 74  1  0  0  0  0
 33 75  1  6  0  0  0
 33 76  1  1  0  0  0
M  END
>  <Formula> (248)
C21H43N5O7

>  <Name> (248)
2-{4,6-DIAMINO-3-[3-AMINO-6-(1-METHYLAMINO-ETHYL)-TETRAHYDRO-PYRAN-2-YLOXY]-2-HYDROXY-CYCLOHEXYLOXY)-5-METHYL-4-METHYLAMINO-TETRAHYDRO-PYRAN-3,5-DIOL

>  <CAS-Nr> (248)
1403-66-3

>  <EINECS> (248)
215-765-8

>  <21 CFR> (248)
556.300, 520.1044a, 520.1044b, 520.1044c, 524.1044

>  <LD50-rat-oral> (248)
6600

>  <Compound classification> (248)
AB-AmGl

>  <Microorganism> (248)
Corynebacterium simplex

>  <Microorganism type> (248)
DA 80

>  <Microorganism classification> (248)
Bac+

>  <MIC> (248)
0.5

>  <Method abbreviation> (248)
SDT

>  <Ref-Nr> (248)
6898

>  <Marker> (248)
0

>  <Method> (248)
Serial dilution test; Inoculum size: 10E5 cfu/ml; Medium: brain-heart infusion broth - in part other media used; pH: ---; Incubation-temperature: 37 degrees Centigrade; Incubation-time: 24h; Solubility enhancer: ---;

>  <Reference> (248)
Luedemann, G.M., Weinstein, M.J.: Gentamycin and Method of Production; US 3,091,572 (1963)

>  <mol_id> (248)
2159

>  <LD50-mouse-oral> (248)
>10000

>  <LD50-mou-ip> (248)
235

>  <MolWeight> (248)
477.60

>  <Nickname> (248)
Gentamycin Antibiotic complex (C1 Structure)

>  <other Names> (248)
Cidomycin, Garamycin, Garasol, Gentacycol, Gentamicin, Gentamicina, Gentamicine, Gentamicinum, Gentamycin, Gentamycin-crme, Gentamycinum, Gentavet, Gentocin, HSDB 3087, Refobacin, Refobacin TM, Uromycine

>  <LD50-mou-iv> (248)
43,5

$$$$

csChmFindW11180110282D

 76 78  0  0  0  0  0  0  0  0999 V2000
   14.0879    5.6417   -1.0658 C   0  0  0  0  0  0  0  0  0  0  0  0
   16.1010    4.8369   -1.1559 C   0  0  0  0  0  0  0  0  0  0  0  0
   17.3773    5.6823    0.3998 C   0  0  0  0  0  0  0  0  0  0  0  0
   17.2012    7.8685    0.3935 C   0  0  0  0  0  0  0  0  0  0  0  0
   15.1150    8.3995    0.5805 C   0  0  0  0  0  0  0  0  0  0  0  0
   13.9946    7.6217   -0.8850 O   0  0  0  0  0  0  0  0  0  0  0  0
   17.9881    8.6292   -1.2794 O   0  0  0  0  0  0  0  0  0  0  0  0
   18.2938    8.7455    2.0176 C   0  0  0  0  0  0  0  0  0  0  0  0
   19.2927    4.9925    0.1864 N   0  0  0  0  0  0  0  0  0  0  0  0
   20.2169    4.4635    1.9074 C   0  0  0  0  0  0  0  0  0  0  0  0
   16.7440    5.2741   -2.9980 O   0  0  0  0  0  0  0  0  0  0  0  0
   13.2116    4.9495    0.5864 O   0  0  0  0  0  0  0  0  0  0  0  0
    7.9444    5.2945   -0.0824 C   0  0  0  0  0  0  0  0  0  0  0  0
   10.0040    5.9498   -0.1659 C   0  0  0  0  0  0  0  0  0  0  0  0
   11.3163    4.3267    0.4106 C   0  0  0  0  0  0  0  0  0  0  0  0
   11.0603    2.6474   -0.9487 C   0  0  0  0  0  0  0  0  0  0  0  0
    8.9956    2.0130   -0.8093 C   0  0  0  0  0  0  0  0  0  0  0  0
    7.6082    3.5654   -1.3802 C   0  0  0  0  0  0  0  0  0  0  0  0
   12.4375    1.1749   -0.6271 N   0  0  0  0  0  0  0  0  0  0  0  0
    7.6206    3.9389   -3.3833 N   0  0  0  0  0  0  0  0  0  0  0  0
   10.1943    7.4639    1.1224 O   0  0  0  0  0  0  0  0  0  0  0  0
    6.7412    6.7596   -0.7547 O   0  0  0  0  0  0  0  0  0  0  0  0
    2.5947    9.4038    2.1416 C   0  0  0  0  0  0  0  0  0  0  0  0
    3.9283   10.7275    1.1347 C   0  0  0  0  0  0  0  0  0  0  0  0
    5.0443    9.6361   -0.3608 C   0  0  0  0  0  0  0  0  0  0  0  0
    6.0425    7.9728    0.6614 C   0  0  0  0  0  0  0  0  0  0  0  0
    4.7440    6.7864    1.6259 O   0  0  0  0  0  0  0  0  0  0  0  0
    3.6797    7.7767    3.0191 C   0  0  0  0  0  0  0  0  0  0  0  0
    2.3745    6.3094    3.9802 C   0  0  0  0  0  0  0  0  0  0  0  0
    3.3743    4.8401    5.0011 N   0  0  0  0  0  0  0  0  0  0  0  0
    4.4070    5.4650    6.6249 C   0  0  0  0  0  0  0  0  0  0  0  0
    1.0254    5.4533    2.5377 C   0  0  0  0  0  0  0  0  0  0  0  0
    6.3002   10.8247   -1.4326 N   0  0  0  0  0  0  0  0  0  0  0  0
   13.3035    5.3193   -2.4038 H   0  0  0  0  0  0  0  0  0  0  0  0
   16.0146    3.2644   -0.9678 H   0  0  0  0  0  0  0  0  0  0  0  0
   16.7670    5.1737    1.7799 H   0  0  0  0  0  0  0  0  0  0  0  0
   14.9276    9.9598    0.4059 H   0  0  0  0  0  0  0  0  0  0  0  0
   14.5666    7.9229    1.9823 H   0  0  0  0  0  0  0  0  0  0  0  0
   17.2117    8.1974   -2.3154 H   0  0  0  0  0  0  0  0  0  0  0  0
   17.9406   10.2729    2.1330 H   0  0  0  0  0  0  0  0  0  0  0  0
   19.8393    8.6205    1.7616 H   0  0  0  0  0  0  0  0  0  0  0  0
   17.9244    8.0238    3.3619 H   0  0  0  0  0  0  0  0  0  0  0  0
   20.0572    5.9346   -0.5418 H   0  0  0  0  0  0  0  0  0  0  0  0
   21.6665    3.9455    1.5521 H   0  0  0  0  0  0  0  0  0  0  0  0
   19.4125    3.2873    2.5895 H   0  0  0  0  0  0  0  0  0  0  0  0
   20.3492    5.6437    2.9563 H   0  0  0  0  0  0  0  0  0  0  0  0
   17.9183    4.6133   -3.1740 H   0  0  0  0  0  0  0  0  0  0  0  0
    7.5730    4.9117    1.4067 H   0  0  0  0  0  0  0  0  0  0  0  0
   10.3696    6.4577   -1.6227 H   0  0  0  0  0  0  0  0  0  0  0  0
   10.9773    3.8826    1.9005 H   0  0  0  0  0  0  0  0  0  0  0  0
   11.3229    3.1514   -2.4377 H   0  0  0  0  0  0  0  0  0  0  0  0
    8.6694    1.5873    0.6755 H   0  0  0  0  0  0  0  0  0  0  0  0
    8.7653    0.7529   -1.7332 H   0  0  0  0  0  0  0  0  0  0  0  0
    6.1386    3.0442   -1.0399 H   0  0  0  0  0  0  0  0  0  0  0  0
   12.0615    0.0000   -1.3098 H   0  0  0  0  0  0  0  0  0  0  0  0
   12.5649    0.8936    0.7479 H   0  0  0  0  0  0  0  0  0  0  0  0
    8.8571    4.4837   -3.7867 H   0  0  0  0  0  0  0  0  0  0  0  0
    6.5981    4.8617   -3.6955 H   0  0  0  0  0  0  0  0  0  0  0  0
   11.4993    7.8577    1.0598 H   0  0  0  0  0  0  0  0  0  0  0  0
    1.5374    8.8469    1.1103 H   0  0  0  0  0  0  0  0  0  0  0  0
    1.8147   10.1786    3.2715 H   0  0  0  0  0  0  0  0  0  0  0  0
    4.9173   11.3900    2.1714 H   0  0  0  0  0  0  0  0  0  0  0  0
    3.1124   11.8864    0.4420 H   0  0  0  0  0  0  0  0  0  0  0  0
    4.0132    8.9956   -1.3915 H   0  0  0  0  0  0  0  0  0  0  0  0
    7.1835    8.4571    1.6483 H   0  0  0  0  0  0  0  0  0  0  0  0
    4.6937    8.3627    4.0951 H   0  0  0  0  0  0  0  0  0  0  0  0
    1.5172    7.1262    5.0460 H   0  0  0  0  0  0  0  0  0  0  0  0
    4.2111    4.1305    4.1108 H   0  0  0  0  0  0  0  0  0  0  0  0
    4.9738    4.1891    7.3657 H   0  0  0  0  0  0  0  0  0  0  0  0
    3.4332    6.2271    7.6074 H   0  0  0  0  0  0  0  0  0  0  0  0
    5.6238    6.4248    6.2956 H   0  0  0  0  0  0  0  0  0  0  0  0
    0.2186    4.2591    3.1658 H   0  0  0  0  0  0  0  0  0  0  0  0
    1.8201    4.9310    1.2863 H   0  0  0  0  0  0  0  0  0  0  0  0
    0.0000    6.5476    2.0697 H   0  0  0  0  0  0  0  0  0  0  0  0
    6.9902   10.0482   -2.3872 H   0  0  0  0  0  0  0  0  0  0  0  0
    7.2382   11.4547   -0.5891 H   0  0  0  0  0  0  0  0  0  0  0  0
  1  2  1  0  0  0  0
  1  6  1  0  0  0  0
  1 12  1  1  0  0  0
  1 34  1  6  0  0  0
  2  3  1  1  0  0  0
  2 11  1  6  0  0  0
  2 35  1  0  0  0  0
  3  4  1  0  0  0  0
  3  9  1  0  0  0  0
  3 36  1  1  0  0  0
  4  5  1  0  0  0  0
  4  7  1  6  0  0  0
  4  8  1  1  0  0  0
  5  6  1  6  0  0  0
  5 37  1  0  0  0  0
  5 38  1  1  0  0  0
  7 39  1  6  0  0  0
  8 40  1  0  0  0  0
  8 41  1  0  0  0  0
  8 42  1  1  0  0  0
  9 10  1  1  0  0  0
  9 43  1  6  0  0  0
 10 44  1  0  0  0  0
 10 45  1  0  0  0  0
 10 46  1  1  0  0  0
 11 47  1  0  0  0  0
 12 15  1  0  0  0  0
 13 14  1  0  0  0  0
 13 18  1  6  0  0  0
 13 22  1  0  0  0  0
 13 48  1  1  0  0  0
 14 15  1  0  0  0  0
 14 21  1  1  0  0  0
 14 49  1  6  0  0  0
 15 16  1  6  0  0  0
 15 50  1  1  0  0  0
 16 17  1  0  0  0  0
 16 19  1  0  0  0  0
 16 51  1  6  0  0  0
 17 18  1  0  0  0  0
 17 52  1  1  0  0  0
 17 53  1  6  0  0  0
 18 20  1  6  0  0  0
 18 54  1  0  0  0  0
 19 55  1  6  0  0  0
 19 56  1  1  0  0  0
 20 57  1  0  0  0  0
 20 58  1  0  0  0  0
 21 59  1  0  0  0  0
 22 26  1  1  0  0  0
 23 24  1  6  0  0  0
 23 28  1  0  0  0  0
 23 60  1  6  0  0  0
 23 61  1  1  0  0  0
 24 25  1  6  0  0  0
 24 62  1  1  0  0  0
 24 63  1  0  0  0  0
 25 26  1  1  0  0  0
 25 33  1  6  0  0  0
 25 64  1  6  0  0  0
 26 27  1  1  0  0  0
 26 65  1  1  0  0  0
 27 28  1  1  0  0  0
 28 29  1  0  0  0  0
 28 66  1  1  0  0  0
 29 30  1  1  0  0  0
 29 32  1  6  0  0  0
 29 67  1  1  0  0  0
 30 31  1  1  0  0  0
 30 68  1  6  0  0  0
 31 69  1  1  0  0  0
 31 70  1  1  0  0  0
 31 71  1  0  0  0  0
 32 72  1  0  0  0  0
 32 73  1  6  0  0  0
 32 74  1  0  0  0  0
 33 75  1  6  0  0  0
 33 76  1  1  0  0  0
M  END
>  <Formula> (249)
C21H43N5O7

>  <Name> (249)
2-{4,6-DIAMINO-3-[3-AMINO-6-(1-METHYLAMINO-ETHYL)-TETRAHYDRO-PYRAN-2-YLOXY]-2-HYDROXY-CYCLOHEXYLOXY)-5-METHYL-4-METHYLAMINO-TETRAHYDRO-PYRAN-3,5-DIOL

>  <CAS-Nr> (249)
1403-66-3

>  <EINECS> (249)
215-765-8

>  <21 CFR> (249)
556.300, 520.1044a, 520.1044b, 520.1044c, 524.1044

>  <LD50-rat-oral> (249)
6600

>  <Compound classification> (249)
AB-AmGl

>  <Microorganism> (249)
Enterococcus faecalis

>  <Microorganism type> (249)
DA 20

>  <Publication strain name> (249)
Streptococcus faecalis

>  <Microorganism classification> (249)
Bac+

>  <MIC> (249)
12

>  <Method abbreviation> (249)
SDT

>  <Ref-Nr> (249)
6898

>  <Marker> (249)
0

>  <Method> (249)
Serial dilution test; Inoculum size: 10E5 cfu/ml; Medium: brain-heart infusion broth - in part other media used; pH: ---; Incubation-temperature: 37 degrees Centigrade; Incubation-time: 24h; Solubility enhancer: ---;

>  <Reference> (249)
Luedemann, G.M., Weinstein, M.J.: Gentamycin and Method of Production; US 3,091,572 (1963)

>  <mol_id> (249)
2159

>  <LD50-mouse-oral> (249)
>10000

>  <LD50-mou-ip> (249)
235

>  <MolWeight> (249)
477.60

>  <Nickname> (249)
Gentamycin Antibiotic complex (C1 Structure)

>  <other Names> (249)
Cidomycin, Garamycin, Garasol, Gentacycol, Gentamicin, Gentamicina, Gentamicine, Gentamicinum, Gentamycin, Gentamycin-crme, Gentamycinum, Gentavet, Gentocin, HSDB 3087, Refobacin, Refobacin TM, Uromycine

>  <LD50-mou-iv> (249)
43,5

$$$$
>  <Name> (250)
[2S-[2ALPHA,5ALPHA,6BETA(S*)]]-6-[(AMINOPHENYLACETYL)AMINO]-3,3-DIMETHYL-7-OXO-4-THIA-1-AZABICYCLO[3.2.0]HEPTANE-2-CARBOXYLIC ACID

>  <CAS-Nr> (250)
69-53-4

>  <EINECS> (250)
200-709-7

>  <21 CFR> (250)
556.40

>  <LD50-rat-oral> (250)
10000

>  <Compound classification> (250)
AB-bLac

>  <Microorganism> (250)
Staphylococcus aureus

>  <Microorganism classification> (250)
Bac+

>  <MIC> (250)
250

>  <Method abbreviation> (250)
SDT

>  <Ref-Nr> (250)
7046

>  <Marker> (250)
0

>  <Method> (250)
Serial dilution test; Inoculum size: 0,5x10E2 CFU/ml; Medium: Sensitivity test broth; pH: ---; Incubation-temperature: 37 degrees Centigrade; Incubation-time: overnight; Solubility enhancer: ---

>  <Reference> (250)
Cole, M., Howarth, T.T., Reading, C.: Antibiotics; US 4,525,352 (1985)

>  <mol_id> (250)
2136

>  <LD50-mouse-oral> (250)
15200

>  <LD50-mou-ip> (250)
3250

>  <Nickname> (250)
Ampicillin

>  <other Names> (250)
AB-PC, Adobacillin, Amblosin, Amfipen, Aminobenzylpenicillin, D-(-)-alpha-Aminobenzylpenicillin, D-(-)-alpha-Aminopenicillin, 6-(D(-)-alpha-Aminophenylacetamido)penicillanic acid, Amipenix S, Ampi-bol, Ampicillin, D-Ampicillin, D-(-)-Ampicillin, Ampicillin A, Ampicillin acid, Ampicillin anhydrate, Ampicin, Ampimed, Ampipenin, Amplisom, Amplital, Ampy-Penyl, Austrapen, AY-6108, Binotal, Bonapicillin, Britacil, BRL 1341, Copharcilin, Doktacillin, Grampenil, Guicitrina, NSC-528986, Nuvapen, Olin Kid, Omnipen, P-50, Penbristol, Penbritin, Penbritin paediatric, Penbritin syrup, Penbrock, Penicillin, (aminophenylmethyl)-, Penicline, Pentrex, Pentrexl, Pfizerpen A, Ponecil, Principen, Qidamp, Roscillin, Semicillin, SK-Ampicillin, Synpenin, Tokiocillin, Tolomol, Totacillin, Totalciclina, Totapen, Ultrabron, Viccillin, Viccillin S, WY-5103

>  <LD50-mou-iv> (250)
4600

$$$$
>  <Name> (251)
[2S-[2ALPHA,5ALPHA,6BETA(S*)]]-6-[(AMINOPHENYLACETYL)AMINO]-3,3-DIMETHYL-7-OXO-4-THIA-1-AZABICYCLO[3.2.0]HEPTANE-2-CARBOXYLIC ACID

>  <CAS-Nr> (251)
69-53-4

>  <EINECS> (251)
200-709-7

>  <21 CFR> (251)
556.40

>  <LD50-rat-oral> (251)
10000

>  <Compound classification> (251)
AB-bLac

>  <Microorganism> (251)
Staphylococcus aureus

>  <Microorganism type> (251)
Russell

>  <Microorganism classification> (251)
Bac+

>  <MIC> (251)
500

>  <Method abbreviation> (251)
SDT

>  <Ref-Nr> (251)
7046

>  <Marker> (251)
0

>  <Method> (251)
Serial dilution test; Inoculum size: 0,5x10E2 CFU/ml; Medium: Sensitivity test broth; pH: ---; Incubation-temperature: 37 degrees Centigrade; Incubation-time: overnight; Solubility enhancer: ---

>  <Reference> (251)
Cole, M., Howarth, T.T., Reading, C.: Antibiotics; US 4,525,352 (1985)

>  <mol_id> (251)
2136

>  <LD50-mouse-oral> (251)
15200

>  <LD50-mou-ip> (251)
3250

>  <Nickname> (251)
Ampicillin

>  <other Names> (251)
AB-PC, Adobacillin, Amblosin, Amfipen, Aminobenzylpenicillin, D-(-)-alpha-Aminobenzylpenicillin, D-(-)-alpha-Aminopenicillin, 6-(D(-)-alpha-Aminophenylacetamido)penicillanic acid, Amipenix S, Ampi-bol, Ampicillin, D-Ampicillin, D-(-)-Ampicillin, Ampicillin A, Ampicillin acid, Ampicillin anhydrate, Ampicin, Ampimed, Ampipenin, Amplisom, Amplital, Ampy-Penyl, Austrapen, AY-6108, Binotal, Bonapicillin, Britacil, BRL 1341, Copharcilin, Doktacillin, Grampenil, Guicitrina, NSC-528986, Nuvapen, Olin Kid, Omnipen, P-50, Penbristol, Penbritin, Penbritin paediatric, Penbritin syrup, Penbrock, Penicillin, (aminophenylmethyl)-, Penicline, Pentrex, Pentrexl, Pfizerpen A, Ponecil, Principen, Qidamp, Roscillin, Semicillin, SK-Ampicillin, Synpenin, Tokiocillin, Tolomol, Totacillin, Totalciclina, Totapen, Ultrabron, Viccillin, Viccillin S, WY-5103

>  <LD50-mou-iv> (251)
4600

$$$$

csChmFindW11180110282D

179184  0  0  0  0  0  0  0  0999 V2000
   30.2071   14.4421    6.2698 C   0  0  0  0  0  0  0  0  0  0  0  0
   31.2026   14.6786    4.8220 N   0  0  0  0  0  0  0  0  0  0  0  0
   31.0539   13.5086    3.4834 C   0  0  0  0  0  0  0  0  0  0  0  0
   29.8489   12.0663    3.6063 C   0  0  0  0  0  0  0  0  0  0  0  0
   28.8325   11.9496    5.1413 C   0  0  0  0  0  0  0  0  0  0  0  0
   29.0509   13.1251    6.4694 N   0  0  0  0  0  0  0  0  0  0  0  0
   32.0507   13.7548    1.9841 N   0  0  0  0  0  0  0  0  0  0  0  0
   29.7661   10.7301    2.1302 C   0  0  0  0  0  0  0  0  0  0  0  0
   27.3938   10.6037    5.4081 C   0  0  0  0  0  0  0  0  0  0  0  0
   26.4743   10.1802    3.9116 N   0  0  0  0  0  0  0  0  0  0  0  0
   24.7286    9.3308    3.9769 C   0  0  0  0  0  0  0  0  0  0  0  0
   24.6697    7.7362    2.7156 C   0  0  0  0  0  0  0  0  0  0  0  0
   26.0567    6.5688    3.2125 O   0  0  0  0  0  0  0  0  0  0  0  0
   26.2214    5.0099    2.1699 C   0  0  0  0  0  0  0  0  0  0  0  0
   26.9704   10.0712    6.8701 O   0  0  0  0  0  0  0  0  0  0  0  0
   24.7657    8.3332    0.8200 C   0  0  0  0  0  0  0  0  0  0  0  0
   23.3993    8.6716   -0.3514 N   0  0  0  0  0  0  0  0  0  0  0  0
   24.1192    9.1791   -1.9103 C   0  0  0  0  0  0  0  0  0  0  0  0
   25.8660    9.1958   -1.8443 N   0  0  0  0  0  0  0  0  0  0  0  0
   26.2580    8.6634   -0.1745 C   0  0  0  0  0  0  0  0  0  0  0  0
   24.5493    4.1662    2.2068 O   0  0  0  0  0  0  0  0  0  0  0  0
   24.5069    2.6395    1.1217 C   0  0  0  0  0  0  0  0  0  0  0  0
   25.9097    1.3042    1.6741 C   0  0  0  0  0  0  0  0  0  0  0  0
   27.7303    2.1185    1.9130 C   0  0  0  0  0  0  0  0  0  0  0  0
   27.6057    3.8130    2.9926 C   0  0  0  0  0  0  0  0  0  0  0  0
   29.2420    4.7365    3.0614 O   0  0  0  0  0  0  0  0  0  0  0  0
   30.4743    4.0458    4.2984 C   0  0  0  0  0  0  0  0  0  0  0  0
   29.8711    4.3826    6.0404 O   0  0  0  0  0  0  0  0  0  0  0  0
   29.7215    6.2004    6.4805 C   0  0  0  0  0  0  0  0  0  0  0  0
   31.4669    7.1799    6.2350 C   0  0  0  0  0  0  0  0  0  0  0  0
   32.3335    6.8145    4.4502 C   0  0  0  0  0  0  0  0  0  0  0  0
   32.2837    4.8469    4.0227 C   0  0  0  0  0  0  0  0  0  0  0  0
   22.6493    1.8646    1.2389 C   0  0  0  0  0  0  0  0  0  0  0  0
   22.6913    0.1099    0.6472 O   0  5  0  0  0  0  0  0  0  0  0  0
   25.3734    0.4570    3.2750 O   0  0  0  0  0  0  0  0  0  0  0  0
   28.4549    2.4956    0.2068 O   0  0  0  0  0  0  0  0  0  0  0  0
   33.5243    3.9434    5.1317 O   0  0  0  0  0  0  0  0  0  0  0  0
   29.0258    6.2722    8.3720 C   0  0  0  0  0  0  0  0  0  0  0  0
   28.9423    8.0446    9.0226 O   0  0  0  0  0  0  0  0  0  0  0  0
   31.0796    9.0272    6.3748 O   0  0  0  0  0  0  0  0  0  0  0  0
   34.1376    7.3385    4.4213 O   0  0  0  0  0  0  0  0  0  0  0  0
   34.5675    9.0664    4.2603 C   0  0  0  0  0  0  0  0  0  0  0  0
   33.4936   10.2435    4.2367 O   0  0  0  0  0  0  0  0  0  0  0  0
   36.3041    9.4781    4.0982 N   0  0  0  0  0  0  0  0  0  0  0  0
   30.3168   15.8157    7.7200 C   0  0  0  0  0  0  0  0  0  0  0  0
   32.2211   16.5113    7.9461 C   0  0  0  0  0  0  0  0  0  0  0  0
   32.3800   17.9551    9.3313 C   0  0  0  0  0  0  0  0  0  0  0  0
   29.1491   17.3060    7.3098 N   0  0  0  0  0  0  0  0  0  0  0  0
   31.1380   18.6922   10.0051 O   0  0  0  0  0  0  0  0  0  0  0  0
   34.0657   18.4155    9.7540 N   0  0  0  0  0  0  0  0  0  0  0  0
   27.2744   16.9370    7.6219 C   0  0  0  0  0  0  0  0  0  0  0  0
   26.1166   18.2923    6.6488 C   0  0  0  0  0  0  0  0  0  0  0  0
   24.2611   18.0573    7.1896 N   0  0  0  0  0  0  0  0  0  0  0  0
   26.2362   18.2242    4.6415 C   0  0  0  0  0  0  0  0  0  0  0  0
   25.3503   19.1381    3.6829 O   0  0  0  0  0  0  0  0  0  0  0  0
   27.3997   17.0328    3.9582 N   0  0  0  0  0  0  0  0  0  0  0  0
   23.3502   10.7573    3.5912 C   0  0  0  0  0  0  0  0  0  0  0  0
   21.8111   10.1568    2.8647 N   0  0  0  0  0  0  0  0  0  0  0  0
   20.4393   11.3787    2.2193 C   0  0  0  0  0  0  0  0  0  0  0  0
   18.7266   10.2904    2.1036 C   0  0  0  0  0  0  0  0  0  0  0  0
   17.0334   11.0331    1.2494 C   0  0  0  0  0  0  0  0  0  0  0  0
   15.5607    9.6666    1.5215 C   0  0  0  0  0  0  0  0  0  0  0  0
   13.9855   10.0698    0.7295 N   0  0  0  0  0  0  0  0  0  0  0  0
   12.4772    8.8521    0.7242 C   0  0  0  0  0  0  0  0  0  0  0  0
   10.8385    9.9611    0.3358 C   0  0  0  0  0  0  0  0  0  0  0  0
    9.2669    9.0943    0.5521 N   0  0  0  0  0  0  0  0  0  0  0  0
    7.5662    9.9639    0.2149 C   0  0  0  0  0  0  0  0  0  0  0  0
    6.3128    8.6584   -0.7069 C   0  0  0  0  0  0  0  0  0  0  0  0
    4.5292    9.4626   -1.0694 C   0  0  0  0  0  0  0  0  0  0  0  0
   23.6350   12.3020    3.8850 O   0  0  0  0  0  0  0  0  0  0  0  0
   21.0605   12.2364    0.4889 C   0  0  0  0  0  0  0  0  0  0  0  0
   19.1034    8.6210    1.2924 O   0  0  0  0  0  0  0  0  0  0  0  0
   17.1608   11.4539   -0.7397 C   0  0  0  0  0  0  0  0  0  0  0  0
   15.8059    8.3246    2.3532 O   0  0  0  0  0  0  0  0  0  0  0  0
   12.6591    7.3816   -0.6660 C   0  0  0  0  0  0  0  0  0  0  0  0
   12.9663    8.0755   -2.5367 C   0  0  0  0  0  0  0  0  0  0  0  0
   14.1001    6.2568   -0.1930 O   0  0  0  0  0  0  0  0  0  0  0  0
   10.9688   11.4752   -0.1594 O   0  0  0  0  0  0  0  0  0  0  0  0
    2.6193    8.8262   -0.0978 S   0  0  0  0  0  0  0  0  0  0  0  0
    1.5199   10.4151   -1.3072 C   0  0  0  0  0  0  0  0  0  0  0  0
    2.6804   11.3208   -2.3716 C   0  0  0  0  0  0  0  0  0  0  0  0
    4.4033   10.7573   -2.2078 N   0  0  0  0  0  0  0  0  0  0  0  0
    2.2135   12.7878   -3.5602 C   0  0  0  0  0  0  0  0  0  0  0  0
    0.0990   13.3814   -4.0362 S   0  0  0  0  0  0  0  0  0  0  0  0
    0.8597   15.0290   -5.4024 C   0  0  0  0  0  0  0  0  0  0  0  0
    2.6738   15.0104   -5.4192 C   0  0  0  0  0  0  0  0  0  0  0  0
    3.4249   13.7229   -4.3786 N   0  0  0  0  0  0  0  0  0  0  0  0
    3.7265   16.2830   -6.4658 C   0  0  0  0  0  0  0  0  0  0  0  0
    5.5003   15.9750   -6.3373 N   0  0  0  0  0  0  0  0  0  0  0  0
    3.0952   17.4875   -7.3433 O   0  0  0  0  0  0  0  0  0  0  0  0
    6.7823   17.0759   -7.2859 C   0  0  0  0  0  0  0  0  0  0  0  0
    8.6416   16.7776   -6.5189 C   0  0  0  0  0  0  0  0  0  0  0  0
   10.0243   17.9830   -7.3916 C   0  0  0  0  0  0  0  0  0  0  0  0
   12.2583   17.5534   -6.6205 S   0  3  0  0  0  0  0  0  0  0  0  0
   12.1446   18.4659   -4.4158 C   0  0  0  0  0  0  0  0  0  0  0  0
   13.3824   19.3596   -7.7149 C   0  0  0  0  0  0  0  0  0  0  0  0
   31.9455   12.8830    0.9122 H   0  0  0  0  0  0  0  0  0  0  0  0
   32.9159   14.8383    1.9329 H   0  0  0  0  0  0  0  0  0  0  0  0
   28.8732   11.2240    1.0694 H   0  0  0  0  0  0  0  0  0  0  0  0
   29.3246    9.4123    2.6056 H   0  0  0  0  0  0  0  0  0  0  0  0
   31.0837   10.4756    1.5314 H   0  0  0  0  0  0  0  0  0  0  0  0
   26.8754   10.6930    2.7481 H   0  0  0  0  0  0  0  0  0  0  0  0
   24.4314    8.8402    5.3370 H   0  0  0  0  0  0  0  0  0  0  0  0
   23.3871    7.0401    2.9210 H   0  0  0  0  0  0  0  0  0  0  0  0
   26.5773    5.3772    0.7940 H   0  0  0  0  0  0  0  0  0  0  0  0
   22.0486    8.5462   -0.0813 H   0  0  0  0  0  0  0  0  0  0  0  0
   23.3045    9.5241   -3.0554 H   0  0  0  0  0  0  0  0  0  0  0  0
   27.6271    8.5021    0.2648 H   0  0  0  0  0  0  0  0  0  0  0  0
   24.7582    3.0537   -0.2731 H   0  0  0  0  0  0  0  0  0  0  0  0
   26.0046    0.2296    0.6656 H   0  0  0  0  0  0  0  0  0  0  0  0
   28.6190    1.1261    2.5410 H   0  0  0  0  0  0  0  0  0  0  0  0
   27.1620    3.4961    4.3624 H   0  0  0  0  0  0  0  0  0  0  0  0
   30.5728    2.5876    4.1283 H   0  0  0  0  0  0  0  0  0  0  0  0
   28.6999    6.8088    5.6088 H   0  0  0  0  0  0  0  0  0  0  0  0
   32.3949    6.8219    7.3215 H   0  0  0  0  0  0  0  0  0  0  0  0
   31.6067    7.5190    3.3797 H   0  0  0  0  0  0  0  0  0  0  0  0
   32.7182    4.6134    2.6312 H   0  0  0  0  0  0  0  0  0  0  0  0
   21.6834    2.5960    0.4033 H   0  0  0  0  0  0  0  0  0  0  0  0
   22.1505    1.8219    2.6238 H   0  0  0  0  0  0  0  0  0  0  0  0
   24.2438    0.0000    3.0237 H   0  0  0  0  0  0  0  0  0  0  0  0
   28.1608    1.5389   -0.5333 H   0  0  0  0  0  0  0  0  0  0  0  0
   33.3502    2.7197    4.9910 H   0  0  0  0  0  0  0  0  0  0  0  0
   29.8970    5.5124    9.2841 H   0  0  0  0  0  0  0  0  0  0  0  0
   27.6690    5.7021    8.4415 H   0  0  0  0  0  0  0  0  0  0  0  0
   28.6412    8.8033    8.0772 H   0  0  0  0  0  0  0  0  0  0  0  0
   32.0565    9.7073    6.0310 H   0  0  0  0  0  0  0  0  0  0  0  0
   37.1790    8.4709    4.1122 H   0  0  0  0  0  0  0  0  0  0  0  0
   36.5992   10.7732    3.9769 H   0  0  0  0  0  0  0  0  0  0  0  0
   29.9126   15.2202    9.0098 H   0  0  0  0  0  0  0  0  0  0  0  0
   32.7138   17.1020    6.6875 H   0  0  0  0  0  0  0  0  0  0  0  0
   33.1117   15.3943    8.3141 H   0  0  0  0  0  0  0  0  0  0  0  0
   29.5008   18.3691    8.0636 H   0  0  0  0  0  0  0  0  0  0  0  0
   34.2015   19.3885   10.6577 H   0  0  0  0  0  0  0  0  0  0  0  0
   35.0879   17.7914    9.1635 H   0  0  0  0  0  0  0  0  0  0  0  0
   27.0286   17.0020    9.0746 H   0  0  0  0  0  0  0  0  0  0  0  0
   26.8975   15.5887    7.1690 H   0  0  0  0  0  0  0  0  0  0  0  0
   26.5295   19.6552    7.0428 H   0  0  0  0  0  0  0  0  0  0  0  0
   23.4490   18.8176    6.4274 H   0  0  0  0  0  0  0  0  0  0  0  0
   23.8556   16.7863    6.9953 H   0  0  0  0  0  0  0  0  0  0  0  0
   27.4735   16.9740    2.6271 H   0  0  0  0  0  0  0  0  0  0  0  0
   28.1408   16.2719    4.7689 H   0  0  0  0  0  0  0  0  0  0  0  0
   21.7378    8.8796    2.4785 H   0  0  0  0  0  0  0  0  0  0  0  0
   20.2344   12.4494    3.2183 H   0  0  0  0  0  0  0  0  0  0  0  0
   18.4021    9.9669    3.5130 H   0  0  0  0  0  0  0  0  0  0  0  0
   16.6275   12.2523    1.9783 H   0  0  0  0  0  0  0  0  0  0  0  0
   13.8315   11.2247    0.0752 H   0  0  0  0  0  0  0  0  0  0  0  0
   12.2951    8.2806    2.0724 H   0  0  0  0  0  0  0  0  0  0  0  0
    9.2777    7.8541    1.0473 H   0  0  0  0  0  0  0  0  0  0  0  0
    7.7358   11.1557   -0.6351 H   0  0  0  0  0  0  0  0  0  0  0  0
    6.9970   10.3962    1.5038 H   0  0  0  0  0  0  0  0  0  0  0  0
    6.1606    7.4502    0.1237 H   0  0  0  0  0  0  0  0  0  0  0  0
    6.9008    8.2246   -1.9882 H   0  0  0  0  0  0  0  0  0  0  0  0
   20.3138   13.4704    0.2044 H   0  0  0  0  0  0  0  0  0  0  0  0
   20.9434   11.3126   -0.6488 H   0  0  0  0  0  0  0  0  0  0  0  0
   22.4699   12.6529    0.5615 H   0  0  0  0  0  0  0  0  0  0  0  0
   18.1451    7.8690    1.5810 H   0  0  0  0  0  0  0  0  0  0  0  0
   15.8584   11.8025   -1.3262 H   0  0  0  0  0  0  0  0  0  0  0  0
   17.6878   10.3128   -1.5046 H   0  0  0  0  0  0  0  0  0  0  0  0
   17.9887   12.6287   -1.0218 H   0  0  0  0  0  0  0  0  0  0  0  0
   11.4543    6.5288   -0.6552 H   0  0  0  0  0  0  0  0  0  0  0  0
   13.1106    6.9619   -3.4899 H   0  0  0  0  0  0  0  0  0  0  0  0
   14.1925    8.8863   -2.6156 H   0  0  0  0  0  0  0  0  0  0  0  0
   11.8418    8.9058   -2.9971 H   0  0  0  0  0  0  0  0  0  0  0  0
   14.0932    5.2453   -0.9172 H   0  0  0  0  0  0  0  0  0  0  0  0
    0.0917   10.6449   -1.2041 H   0  0  0  0  0  0  0  0  0  0  0  0
    0.0000   15.9418   -6.1316 H   0  0  0  0  0  0  0  0  0  0  0  0
    5.9096   14.9065   -5.6498 H   0  0  0  0  0  0  0  0  0  0  0  0
    6.4241   18.4989   -7.1418 H   0  0  0  0  0  0  0  0  0  0  0  0
    6.7560   16.7260   -8.7172 H   0  0  0  0  0  0  0  0  0  0  0  0
    9.0143   15.3622   -6.7112 H   0  0  0  0  0  0  0  0  0  0  0  0
    8.5984   17.0326   -5.0664 H   0  0  0  0  0  0  0  0  0  0  0  0
    9.6854   19.3967   -7.1578 H   0  0  0  0  0  0  0  0  0  0  0  0
   10.0353   17.7500   -8.8470 H   0  0  0  0  0  0  0  0  0  0  0  0
   13.5086   18.5619   -3.8735 H   0  0  0  0  0  0  0  0  0  0  0  0
   11.3611   17.5649   -3.5578 H   0  0  0  0  0  0  0  0  0  0  0  0
   11.5272   19.8002   -4.4151 H   0  0  0  0  0  0  0  0  0  0  0  0
   14.7721   19.4147   -7.2362 H   0  0  0  0  0  0  0  0  0  0  0  0
   12.7267   20.6475   -7.4441 H   0  0  0  0  0  0  0  0  0  0  0  0
   13.3849   19.1125   -9.1650 H   0  0  0  0  0  0  0  0  0  0  0  0
  1  2  2  0  0  0  0
  1  6  1  0  0  0  0
  1 45  1  1  0  0  0
  2  3  1  6  0  0  0
  3  4  2  0  0  0  0
  3  7  1  6  0  0  0
  4  5  1  1  0  0  0
  4  8  1  6  0  0  0
  5  6  2  0  0  0  0
  5  9  1  0  0  0  0
  7 97  1  6  0  0  0
  7 98  1  0  0  0  0
  8 99  1  6  0  0  0
  8100  1  0  0  0  0
  8101  1  0  0  0  0
  9 10  1  6  0  0  0
  9 15  2  0  0  0  0
 10 11  1  0  0  0  0
 10102  1  6  0  0  0
 11 12  1  6  0  0  0
 11 57  1  0  0  0  0
 11103  1  1  0  0  0
 12 13  1  0  0  0  0
 12 16  1  6  0  0  0
 12104  1  0  0  0  0
 13 14  1  6  0  0  0
 14 21  1  0  0  0  0
 14 25  1  0  0  0  0
 14105  1  6  0  0  0
 16 17  1  6  0  0  0
 16 20  2  0  0  0  0
 17 18  1  6  0  0  0
 17106  1  0  0  0  0
 18 19  2  0  0  0  0
 18107  1  6  0  0  0
 19 20  1  1  0  0  0
 20108  1  0  0  0  0
 21 22  1  6  0  0  0
 22 23  1  0  0  0  0
 22 33  1  0  0  0  0
 22109  1  6  0  0  0
 23 24  1  0  0  0  0
 23 35  1  1  0  0  0
 23110  1  6  0  0  0
 24 25  1  1  0  0  0
 24 36  1  6  0  0  0
 24111  1  0  0  0  0
 25 26  1  0  0  0  0
 25112  1  1  0  0  0
 26 27  1  1  0  0  0
 27 28  1  1  0  0  0
 27 32  1  0  0  0  0
 27113  1  0  0  0  0
 28 29  1  0  0  0  0
 29 30  1  0  0  0  0
 29 38  1  1  0  0  0
 29114  1  6  0  0  0
 30 31  1  6  0  0  0
 30 40  1  0  0  0  0
 30115  1  1  0  0  0
 31 32  1  0  0  0  0
 31 41  1  0  0  0  0
 31116  1  6  0  0  0
 32 37  1  1  0  0  0
 32117  1  6  0  0  0
 33 34  1  0  0  0  0
 33118  1  6  0  0  0
 33119  1  1  0  0  0
 35120  1  0  0  0  0
 36121  1  6  0  0  0
 37122  1  0  0  0  0
 38 39  1  0  0  0  0
 38123  1  1  0  0  0
 38124  1  0  0  0  0
 39125  1  6  0  0  0
 40126  1  0  0  0  0
 41 42  1  0  0  0  0
 42 43  2  0  0  0  0
 42 44  1  0  0  0  0
 44127  1  0  0  0  0
 44128  1  0  0  0  0
 45 46  1  0  0  0  0
 45 48  1  0  0  0  0
 45129  1  1  0  0  0
 46 47  1  1  0  0  0
 46130  1  6  0  0  0
 46131  1  0  0  0  0
 47 49  2  0  0  0  0
 47 50  1  0  0  0  0
 48 51  1  0  0  0  0
 48132  1  1  0  0  0
 50133  1  1  0  0  0
 50134  1  0  0  0  0
 51 52  1  6  0  0  0
 51135  1  1  0  0  0
 51136  1  0  0  0  0
 52 53  1  0  0  0  0
 52 54  1  6  0  0  0
 52137  1  0  0  0  0
 53138  1  6  0  0  0
 53139  1  0  0  0  0
 54 55  2  0  0  0  0
 54 56  1  0  0  0  0
 56140  1  6  0  0  0
 56141  1  1  0  0  0
 57 58  1  0  0  0  0
 57 70  2  0  0  0  0
 58 59  1  0  0  0  0
 58142  1  0  0  0  0
 59 60  1  0  0  0  0
 59 71  1  6  0  0  0
 59143  1  1  0  0  0
 60 61  1  0  0  0  0
 60 72  1  0  0  0  0
 60144  1  1  0  0  0
 61 62  1  0  0  0  0
 61 73  1  6  0  0  0
 61145  1  1  0  0  0
 62 63  1  0  0  0  0
 62 74  2  0  0  0  0
 63 64  1  0  0  0  0
 63146  1  6  0  0  0
 64 65  1  0  0  0  0
 64 75  1  6  0  0  0
 64147  1  1  0  0  0
 65 66  1  0  0  0  0
 65 78  2  0  0  0  0
 66 67  1  0  0  0  0
 66148  1  0  0  0  0
 67 68  1  6  0  0  0
 67149  1  6  0  0  0
 67150  1  1  0  0  0
 68 69  1  0  0  0  0
 68151  1  1  0  0  0
 68152  1  6  0  0  0
 69 79  1  0  0  0  0
 69 82  2  0  0  0  0
 71153  1  0  0  0  0
 71154  1  6  0  0  0
 71155  1  0  0  0  0
 72156  1  0  0  0  0
 73157  1  0  0  0  0
 73158  1  6  0  0  0
 73159  1  0  0  0  0
 75 76  1  6  0  0  0
 75 77  1  0  0  0  0
 75160  1  0  0  0  0
 76161  1  6  0  0  0
 76162  1  0  0  0  0
 76163  1  0  0  0  0
 77164  1  6  0  0  0
 79 80  1  6  0  0  0
 80 81  2  0  0  0  0
 80165  1  0  0  0  0
 81 82  1  0  0  0  0
 81 83  1  6  0  0  0
 83 84  1  0  0  0  0
 83 87  2  0  0  0  0
 84 85  1  6  0  0  0
 85 86  2  0  0  0  0
 85166  1  6  0  0  0
 86 87  1  1  0  0  0
 86 88  1  6  0  0  0
 88 89  1  0  0  0  0
 88 90  2  0  0  0  0
 89 91  1  6  0  0  0
 89167  1  1  0  0  0
 91 92  1  0  0  0  0
 91168  1  0  0  0  0
 91169  1  6  0  0  0
 92 93  1  0  0  0  0
 92170  1  0  0  0  0
 92171  1  1  0  0  0
 93 94  1  0  0  0  0
 93172  1  0  0  0  0
 93173  1  6  0  0  0
 94 95  1  1  0  0  0
 94 96  1  6  0  0  0
 95174  1  0  0  0  0
 95175  1  1  0  0  0
 95176  1  0  0  0  0
 96177  1  0  0  0  0
 96178  1  0  0  0  0
 96179  1  6  0  0  0
M  END
>  <Formula> (252)
C55H83N17O21S3

>  <Name> (252)
BLEOMYCIN A

>  <CAS-Nr> (252)
---

>  <Compound classification> (252)
AB-GlPe

>  <Microorganism> (252)
Shigella dysenteriae

>  <Microorganism type> (252)
2-1684

>  <Microorganism classification> (252)
Bac-

>  <MIC> (252)
0.2

>  <Method abbreviation> (252)
ADlT

>  <Ref-Nr> (252)
7240

>  <Marker> (252)
0

>  <Method> (252)
Agar dilution test; Inoculum size: ---; Medium: ---; pH: ---; Incubation-temperature: -- degrees Centigrade; Incubation-time: ---; Solubility enhancer: ---;

>  <Reference> (252)
Umezawa, H., Maeda, K., Okami, Y., Takeuchi, T.: Bleomycin and Process for the Preparation Thereof; US 3,681,491 (1972)

>  <mol_id> (252)
4154

>  <LD50-mou-ip> (252)
>125

>  <MolWeight> (252)
1414.54

>  <Nickname> (252)
Bleomycin A Complex (structure Bleomycin A2)

>  <other Names> (252)
Bleomycin A complex

$$$$

csChmFindW11180110282D

179184  0  0  0  0  0  0  0  0999 V2000
   30.2071   14.4421    6.2698 C   0  0  0  0  0  0  0  0  0  0  0  0
   31.2026   14.6786    4.8220 N   0  0  0  0  0  0  0  0  0  0  0  0
   31.0539   13.5086    3.4834 C   0  0  0  0  0  0  0  0  0  0  0  0
   29.8489   12.0663    3.6063 C   0  0  0  0  0  0  0  0  0  0  0  0
   28.8325   11.9496    5.1413 C   0  0  0  0  0  0  0  0  0  0  0  0
   29.0509   13.1251    6.4694 N   0  0  0  0  0  0  0  0  0  0  0  0
   32.0507   13.7548    1.9841 N   0  0  0  0  0  0  0  0  0  0  0  0
   29.7661   10.7301    2.1302 C   0  0  0  0  0  0  0  0  0  0  0  0
   27.3938   10.6037    5.4081 C   0  0  0  0  0  0  0  0  0  0  0  0
   26.4743   10.1802    3.9116 N   0  0  0  0  0  0  0  0  0  0  0  0
   24.7286    9.3308    3.9769 C   0  0  0  0  0  0  0  0  0  0  0  0
   24.6697    7.7362    2.7156 C   0  0  0  0  0  0  0  0  0  0  0  0
   26.0567    6.5688    3.2125 O   0  0  0  0  0  0  0  0  0  0  0  0
   26.2214    5.0099    2.1699 C   0  0  0  0  0  0  0  0  0  0  0  0
   26.9704   10.0712    6.8701 O   0  0  0  0  0  0  0  0  0  0  0  0
   24.7657    8.3332    0.8200 C   0  0  0  0  0  0  0  0  0  0  0  0
   23.3993    8.6716   -0.3514 N   0  0  0  0  0  0  0  0  0  0  0  0
   24.1192    9.1791   -1.9103 C   0  0  0  0  0  0  0  0  0  0  0  0
   25.8660    9.1958   -1.8443 N   0  0  0  0  0  0  0  0  0  0  0  0
   26.2580    8.6634   -0.1745 C   0  0  0  0  0  0  0  0  0  0  0  0
   24.5493    4.1662    2.2068 O   0  0  0  0  0  0  0  0  0  0  0  0
   24.5069    2.6395    1.1217 C   0  0  0  0  0  0  0  0  0  0  0  0
   25.9097    1.3042    1.6741 C   0  0  0  0  0  0  0  0  0  0  0  0
   27.7303    2.1185    1.9130 C   0  0  0  0  0  0  0  0  0  0  0  0
   27.6057    3.8130    2.9926 C   0  0  0  0  0  0  0  0  0  0  0  0
   29.2420    4.7365    3.0614 O   0  0  0  0  0  0  0  0  0  0  0  0
   30.4743    4.0458    4.2984 C   0  0  0  0  0  0  0  0  0  0  0  0
   29.8711    4.3826    6.0404 O   0  0  0  0  0  0  0  0  0  0  0  0
   29.7215    6.2004    6.4805 C   0  0  0  0  0  0  0  0  0  0  0  0
   31.4669    7.1799    6.2350 C   0  0  0  0  0  0  0  0  0  0  0  0
   32.3335    6.8145    4.4502 C   0  0  0  0  0  0  0  0  0  0  0  0
   32.2837    4.8469    4.0227 C   0  0  0  0  0  0  0  0  0  0  0  0
   22.6493    1.8646    1.2389 C   0  0  0  0  0  0  0  0  0  0  0  0
   22.6913    0.1099    0.6472 O   0  5  0  0  0  0  0  0  0  0  0  0
   25.3734    0.4570    3.2750 O   0  0  0  0  0  0  0  0  0  0  0  0
   28.4549    2.4956    0.2068 O   0  0  0  0  0  0  0  0  0  0  0  0
   33.5243    3.9434    5.1317 O   0  0  0  0  0  0  0  0  0  0  0  0
   29.0258    6.2722    8.3720 C   0  0  0  0  0  0  0  0  0  0  0  0
   28.9423    8.0446    9.0226 O   0  0  0  0  0  0  0  0  0  0  0  0
   31.0796    9.0272    6.3748 O   0  0  0  0  0  0  0  0  0  0  0  0
   34.1376    7.3385    4.4213 O   0  0  0  0  0  0  0  0  0  0  0  0
   34.5675    9.0664    4.2603 C   0  0  0  0  0  0  0  0  0  0  0  0
   33.4936   10.2435    4.2367 O   0  0  0  0  0  0  0  0  0  0  0  0
   36.3041    9.4781    4.0982 N   0  0  0  0  0  0  0  0  0  0  0  0
   30.3168   15.8157    7.7200 C   0  0  0  0  0  0  0  0  0  0  0  0
   32.2211   16.5113    7.9461 C   0  0  0  0  0  0  0  0  0  0  0  0
   32.3800   17.9551    9.3313 C   0  0  0  0  0  0  0  0  0  0  0  0
   29.1491   17.3060    7.3098 N   0  0  0  0  0  0  0  0  0  0  0  0
   31.1380   18.6922   10.0051 O   0  0  0  0  0  0  0  0  0  0  0  0
   34.0657   18.4155    9.7540 N   0  0  0  0  0  0  0  0  0  0  0  0
   27.2744   16.9370    7.6219 C   0  0  0  0  0  0  0  0  0  0  0  0
   26.1166   18.2923    6.6488 C   0  0  0  0  0  0  0  0  0  0  0  0
   24.2611   18.0573    7.1896 N   0  0  0  0  0  0  0  0  0  0  0  0
   26.2362   18.2242    4.6415 C   0  0  0  0  0  0  0  0  0  0  0  0
   25.3503   19.1381    3.6829 O   0  0  0  0  0  0  0  0  0  0  0  0
   27.3997   17.0328    3.9582 N   0  0  0  0  0  0  0  0  0  0  0  0
   23.3502   10.7573    3.5912 C   0  0  0  0  0  0  0  0  0  0  0  0
   21.8111   10.1568    2.8647 N   0  0  0  0  0  0  0  0  0  0  0  0
   20.4393   11.3787    2.2193 C   0  0  0  0  0  0  0  0  0  0  0  0
   18.7266   10.2904    2.1036 C   0  0  0  0  0  0  0  0  0  0  0  0
   17.0334   11.0331    1.2494 C   0  0  0  0  0  0  0  0  0  0  0  0
   15.5607    9.6666    1.5215 C   0  0  0  0  0  0  0  0  0  0  0  0
   13.9855   10.0698    0.7295 N   0  0  0  0  0  0  0  0  0  0  0  0
   12.4772    8.8521    0.7242 C   0  0  0  0  0  0  0  0  0  0  0  0
   10.8385    9.9611    0.3358 C   0  0  0  0  0  0  0  0  0  0  0  0
    9.2669    9.0943    0.5521 N   0  0  0  0  0  0  0  0  0  0  0  0
    7.5662    9.9639    0.2149 C   0  0  0  0  0  0  0  0  0  0  0  0
    6.3128    8.6584   -0.7069 C   0  0  0  0  0  0  0  0  0  0  0  0
    4.5292    9.4626   -1.0694 C   0  0  0  0  0  0  0  0  0  0  0  0
   23.6350   12.3020    3.8850 O   0  0  0  0  0  0  0  0  0  0  0  0
   21.0605   12.2364    0.4889 C   0  0  0  0  0  0  0  0  0  0  0  0
   19.1034    8.6210    1.2924 O   0  0  0  0  0  0  0  0  0  0  0  0
   17.1608   11.4539   -0.7397 C   0  0  0  0  0  0  0  0  0  0  0  0
   15.8059    8.3246    2.3532 O   0  0  0  0  0  0  0  0  0  0  0  0
   12.6591    7.3816   -0.6660 C   0  0  0  0  0  0  0  0  0  0  0  0
   12.9663    8.0755   -2.5367 C   0  0  0  0  0  0  0  0  0  0  0  0
   14.1001    6.2568   -0.1930 O   0  0  0  0  0  0  0  0  0  0  0  0
   10.9688   11.4752   -0.1594 O   0  0  0  0  0  0  0  0  0  0  0  0
    2.6193    8.8262   -0.0978 S   0  0  0  0  0  0  0  0  0  0  0  0
    1.5199   10.4151   -1.3072 C   0  0  0  0  0  0  0  0  0  0  0  0
    2.6804   11.3208   -2.3716 C   0  0  0  0  0  0  0  0  0  0  0  0
    4.4033   10.7573   -2.2078 N   0  0  0  0  0  0  0  0  0  0  0  0
    2.2135   12.7878   -3.5602 C   0  0  0  0  0  0  0  0  0  0  0  0
    0.0990   13.3814   -4.0362 S   0  0  0  0  0  0  0  0  0  0  0  0
    0.8597   15.0290   -5.4024 C   0  0  0  0  0  0  0  0  0  0  0  0
    2.6738   15.0104   -5.4192 C   0  0  0  0  0  0  0  0  0  0  0  0
    3.4249   13.7229   -4.3786 N   0  0  0  0  0  0  0  0  0  0  0  0
    3.7265   16.2830   -6.4658 C   0  0  0  0  0  0  0  0  0  0  0  0
    5.5003   15.9750   -6.3373 N   0  0  0  0  0  0  0  0  0  0  0  0
    3.0952   17.4875   -7.3433 O   0  0  0  0  0  0  0  0  0  0  0  0
    6.7823   17.0759   -7.2859 C   0  0  0  0  0  0  0  0  0  0  0  0
    8.6416   16.7776   -6.5189 C   0  0  0  0  0  0  0  0  0  0  0  0
   10.0243   17.9830   -7.3916 C   0  0  0  0  0  0  0  0  0  0  0  0
   12.2583   17.5534   -6.6205 S   0  3  0  0  0  0  0  0  0  0  0  0
   12.1446   18.4659   -4.4158 C   0  0  0  0  0  0  0  0  0  0  0  0
   13.3824   19.3596   -7.7149 C   0  0  0  0  0  0  0  0  0  0  0  0
   31.9455   12.8830    0.9122 H   0  0  0  0  0  0  0  0  0  0  0  0
   32.9159   14.8383    1.9329 H   0  0  0  0  0  0  0  0  0  0  0  0
   28.8732   11.2240    1.0694 H   0  0  0  0  0  0  0  0  0  0  0  0
   29.3246    9.4123    2.6056 H   0  0  0  0  0  0  0  0  0  0  0  0
   31.0837   10.4756    1.5314 H   0  0  0  0  0  0  0  0  0  0  0  0
   26.8754   10.6930    2.7481 H   0  0  0  0  0  0  0  0  0  0  0  0
   24.4314    8.8402    5.3370 H   0  0  0  0  0  0  0  0  0  0  0  0
   23.3871    7.0401    2.9210 H   0  0  0  0  0  0  0  0  0  0  0  0
   26.5773    5.3772    0.7940 H   0  0  0  0  0  0  0  0  0  0  0  0
   22.0486    8.5462   -0.0813 H   0  0  0  0  0  0  0  0  0  0  0  0
   23.3045    9.5241   -3.0554 H   0  0  0  0  0  0  0  0  0  0  0  0
   27.6271    8.5021    0.2648 H   0  0  0  0  0  0  0  0  0  0  0  0
   24.7582    3.0537   -0.2731 H   0  0  0  0  0  0  0  0  0  0  0  0
   26.0046    0.2296    0.6656 H   0  0  0  0  0  0  0  0  0  0  0  0
   28.6190    1.1261    2.5410 H   0  0  0  0  0  0  0  0  0  0  0  0
   27.1620    3.4961    4.3624 H   0  0  0  0  0  0  0  0  0  0  0  0
   30.5728    2.5876    4.1283 H   0  0  0  0  0  0  0  0  0  0  0  0
   28.6999    6.8088    5.6088 H   0  0  0  0  0  0  0  0  0  0  0  0
   32.3949    6.8219    7.3215 H   0  0  0  0  0  0  0  0  0  0  0  0
   31.6067    7.5190    3.3797 H   0  0  0  0  0  0  0  0  0  0  0  0
   32.7182    4.6134    2.6312 H   0  0  0  0  0  0  0  0  0  0  0  0
   21.6834    2.5960    0.4033 H   0  0  0  0  0  0  0  0  0  0  0  0
   22.1505    1.8219    2.6238 H   0  0  0  0  0  0  0  0  0  0  0  0
   24.2438    0.0000    3.0237 H   0  0  0  0  0  0  0  0  0  0  0  0
   28.1608    1.5389   -0.5333 H   0  0  0  0  0  0  0  0  0  0  0  0
   33.3502    2.7197    4.9910 H   0  0  0  0  0  0  0  0  0  0  0  0
   29.8970    5.5124    9.2841 H   0  0  0  0  0  0  0  0  0  0  0  0
   27.6690    5.7021    8.4415 H   0  0  0  0  0  0  0  0  0  0  0  0
   28.6412    8.8033    8.0772 H   0  0  0  0  0  0  0  0  0  0  0  0
   32.0565    9.7073    6.0310 H   0  0  0  0  0  0  0  0  0  0  0  0
   37.1790    8.4709    4.1122 H   0  0  0  0  0  0  0  0  0  0  0  0
   36.5992   10.7732    3.9769 H   0  0  0  0  0  0  0  0  0  0  0  0
   29.9126   15.2202    9.0098 H   0  0  0  0  0  0  0  0  0  0  0  0
   32.7138   17.1020    6.6875 H   0  0  0  0  0  0  0  0  0  0  0  0
   33.1117   15.3943    8.3141 H   0  0  0  0  0  0  0  0  0  0  0  0
   29.5008   18.3691    8.0636 H   0  0  0  0  0  0  0  0  0  0  0  0
   34.2015   19.3885   10.6577 H   0  0  0  0  0  0  0  0  0  0  0  0
   35.0879   17.7914    9.1635 H   0  0  0  0  0  0  0  0  0  0  0  0
   27.0286   17.0020    9.0746 H   0  0  0  0  0  0  0  0  0  0  0  0
   26.8975   15.5887    7.1690 H   0  0  0  0  0  0  0  0  0  0  0  0
   26.5295   19.6552    7.0428 H   0  0  0  0  0  0  0  0  0  0  0  0
   23.4490   18.8176    6.4274 H   0  0  0  0  0  0  0  0  0  0  0  0
   23.8556   16.7863    6.9953 H   0  0  0  0  0  0  0  0  0  0  0  0
   27.4735   16.9740    2.6271 H   0  0  0  0  0  0  0  0  0  0  0  0
   28.1408   16.2719    4.7689 H   0  0  0  0  0  0  0  0  0  0  0  0
   21.7378    8.8796    2.4785 H   0  0  0  0  0  0  0  0  0  0  0  0
   20.2344   12.4494    3.2183 H   0  0  0  0  0  0  0  0  0  0  0  0
   18.4021    9.9669    3.5130 H   0  0  0  0  0  0  0  0  0  0  0  0
   16.6275   12.2523    1.9783 H   0  0  0  0  0  0  0  0  0  0  0  0
   13.8315   11.2247    0.0752 H   0  0  0  0  0  0  0  0  0  0  0  0
   12.2951    8.2806    2.0724 H   0  0  0  0  0  0  0  0  0  0  0  0
    9.2777    7.8541    1.0473 H   0  0  0  0  0  0  0  0  0  0  0  0
    7.7358   11.1557   -0.6351 H   0  0  0  0  0  0  0  0  0  0  0  0
    6.9970   10.3962    1.5038 H   0  0  0  0  0  0  0  0  0  0  0  0
    6.1606    7.4502    0.1237 H   0  0  0  0  0  0  0  0  0  0  0  0
    6.9008    8.2246   -1.9882 H   0  0  0  0  0  0  0  0  0  0  0  0
   20.3138   13.4704    0.2044 H   0  0  0  0  0  0  0  0  0  0  0  0
   20.9434   11.3126   -0.6488 H   0  0  0  0  0  0  0  0  0  0  0  0
   22.4699   12.6529    0.5615 H   0  0  0  0  0  0  0  0  0  0  0  0
   18.1451    7.8690    1.5810 H   0  0  0  0  0  0  0  0  0  0  0  0
   15.8584   11.8025   -1.3262 H   0  0  0  0  0  0  0  0  0  0  0  0
   17.6878   10.3128   -1.5046 H   0  0  0  0  0  0  0  0  0  0  0  0
   17.9887   12.6287   -1.0218 H   0  0  0  0  0  0  0  0  0  0  0  0
   11.4543    6.5288   -0.6552 H   0  0  0  0  0  0  0  0  0  0  0  0
   13.1106    6.9619   -3.4899 H   0  0  0  0  0  0  0  0  0  0  0  0
   14.1925    8.8863   -2.6156 H   0  0  0  0  0  0  0  0  0  0  0  0
   11.8418    8.9058   -2.9971 H   0  0  0  0  0  0  0  0  0  0  0  0
   14.0932    5.2453   -0.9172 H   0  0  0  0  0  0  0  0  0  0  0  0
    0.0917   10.6449   -1.2041 H   0  0  0  0  0  0  0  0  0  0  0  0
    0.0000   15.9418   -6.1316 H   0  0  0  0  0  0  0  0  0  0  0  0
    5.9096   14.9065   -5.6498 H   0  0  0  0  0  0  0  0  0  0  0  0
    6.4241   18.4989   -7.1418 H   0  0  0  0  0  0  0  0  0  0  0  0
    6.7560   16.7260   -8.7172 H   0  0  0  0  0  0  0  0  0  0  0  0
    9.0143   15.3622   -6.7112 H   0  0  0  0  0  0  0  0  0  0  0  0
    8.5984   17.0326   -5.0664 H   0  0  0  0  0  0  0  0  0  0  0  0
    9.6854   19.3967   -7.1578 H   0  0  0  0  0  0  0  0  0  0  0  0
   10.0353   17.7500   -8.8470 H   0  0  0  0  0  0  0  0  0  0  0  0
   13.5086   18.5619   -3.8735 H   0  0  0  0  0  0  0  0  0  0  0  0
   11.3611   17.5649   -3.5578 H   0  0  0  0  0  0  0  0  0  0  0  0
   11.5272   19.8002   -4.4151 H   0  0  0  0  0  0  0  0  0  0  0  0
   14.7721   19.4147   -7.2362 H   0  0  0  0  0  0  0  0  0  0  0  0
   12.7267   20.6475   -7.4441 H   0  0  0  0  0  0  0  0  0  0  0  0
   13.3849   19.1125   -9.1650 H   0  0  0  0  0  0  0  0  0  0  0  0
  1  2  2  0  0  0  0
  1  6  1  0  0  0  0
  1 45  1  1  0  0  0
  2  3  1  6  0  0  0
  3  4  2  0  0  0  0
  3  7  1  6  0  0  0
  4  5  1  1  0  0  0
  4  8  1  6  0  0  0
  5  6  2  0  0  0  0
  5  9  1  0  0  0  0
  7 97  1  6  0  0  0
  7 98  1  0  0  0  0
  8 99  1  6  0  0  0
  8100  1  0  0  0  0
  8101  1  0  0  0  0
  9 10  1  6  0  0  0
  9 15  2  0  0  0  0
 10 11  1  0  0  0  0
 10102  1  6  0  0  0
 11 12  1  6  0  0  0
 11 57  1  0  0  0  0
 11103  1  1  0  0  0
 12 13  1  0  0  0  0
 12 16  1  6  0  0  0
 12104  1  0  0  0  0
 13 14  1  6  0  0  0
 14 21  1  0  0  0  0
 14 25  1  0  0  0  0
 14105  1  6  0  0  0
 16 17  1  6  0  0  0
 16 20  2  0  0  0  0
 17 18  1  6  0  0  0
 17106  1  0  0  0  0
 18 19  2  0  0  0  0
 18107  1  6  0  0  0
 19 20  1  1  0  0  0
 20108  1  0  0  0  0
 21 22  1  6  0  0  0
 22 23  1  0  0  0  0
 22 33  1  0  0  0  0
 22109  1  6  0  0  0
 23 24  1  0  0  0  0
 23 35  1  1  0  0  0
 23110  1  6  0  0  0
 24 25  1  1  0  0  0
 24 36  1  6  0  0  0
 24111  1  0  0  0  0
 25 26  1  0  0  0  0
 25112  1  1  0  0  0
 26 27  1  1  0  0  0
 27 28  1  1  0  0  0
 27 32  1  0  0  0  0
 27113  1  0  0  0  0
 28 29  1  0  0  0  0
 29 30  1  0  0  0  0
 29 38  1  1  0  0  0
 29114  1  6  0  0  0
 30 31  1  6  0  0  0
 30 40  1  0  0  0  0
 30115  1  1  0  0  0
 31 32  1  0  0  0  0
 31 41  1  0  0  0  0
 31116  1  6  0  0  0
 32 37  1  1  0  0  0
 32117  1  6  0  0  0
 33 34  1  0  0  0  0
 33118  1  6  0  0  0
 33119  1  1  0  0  0
 35120  1  0  0  0  0
 36121  1  6  0  0  0
 37122  1  0  0  0  0
 38 39  1  0  0  0  0
 38123  1  1  0  0  0
 38124  1  0  0  0  0
 39125  1  6  0  0  0
 40126  1  0  0  0  0
 41 42  1  0  0  0  0
 42 43  2  0  0  0  0
 42 44  1  0  0  0  0
 44127  1  0  0  0  0
 44128  1  0  0  0  0
 45 46  1  0  0  0  0
 45 48  1  0  0  0  0
 45129  1  1  0  0  0
 46 47  1  1  0  0  0
 46130  1  6  0  0  0
 46131  1  0  0  0  0
 47 49  2  0  0  0  0
 47 50  1  0  0  0  0
 48 51  1  0  0  0  0
 48132  1  1  0  0  0
 50133  1  1  0  0  0
 50134  1  0  0  0  0
 51 52  1  6  0  0  0
 51135  1  1  0  0  0
 51136  1  0  0  0  0
 52 53  1  0  0  0  0
 52 54  1  6  0  0  0
 52137  1  0  0  0  0
 53138  1  6  0  0  0
 53139  1  0  0  0  0
 54 55  2  0  0  0  0
 54 56  1  0  0  0  0
 56140  1  6  0  0  0
 56141  1  1  0  0  0
 57 58  1  0  0  0  0
 57 70  2  0  0  0  0
 58 59  1  0  0  0  0
 58142  1  0  0  0  0
 59 60  1  0  0  0  0
 59 71  1  6  0  0  0
 59143  1  1  0  0  0
 60 61  1  0  0  0  0
 60 72  1  0  0  0  0
 60144  1  1  0  0  0
 61 62  1  0  0  0  0
 61 73  1  6  0  0  0
 61145  1  1  0  0  0
 62 63  1  0  0  0  0
 62 74  2  0  0  0  0
 63 64  1  0  0  0  0
 63146  1  6  0  0  0
 64 65  1  0  0  0  0
 64 75  1  6  0  0  0
 64147  1  1  0  0  0
 65 66  1  0  0  0  0
 65 78  2  0  0  0  0
 66 67  1  0  0  0  0
 66148  1  0  0  0  0
 67 68  1  6  0  0  0
 67149  1  6  0  0  0
 67150  1  1  0  0  0
 68 69  1  0  0  0  0
 68151  1  1  0  0  0
 68152  1  6  0  0  0
 69 79  1  0  0  0  0
 69 82  2  0  0  0  0
 71153  1  0  0  0  0
 71154  1  6  0  0  0
 71155  1  0  0  0  0
 72156  1  0  0  0  0
 73157  1  0  0  0  0
 73158  1  6  0  0  0
 73159  1  0  0  0  0
 75 76  1  6  0  0  0
 75 77  1  0  0  0  0
 75160  1  0  0  0  0
 76161  1  6  0  0  0
 76162  1  0  0  0  0
 76163  1  0  0  0  0
 77164  1  6  0  0  0
 79 80  1  6  0  0  0
 80 81  2  0  0  0  0
 80165  1  0  0  0  0
 81 82  1  0  0  0  0
 81 83  1  6  0  0  0
 83 84  1  0  0  0  0
 83 87  2  0  0  0  0
 84 85  1  6  0  0  0
 85 86  2  0  0  0  0
 85166  1  6  0  0  0
 86 87  1  1  0  0  0
 86 88  1  6  0  0  0
 88 89  1  0  0  0  0
 88 90  2  0  0  0  0
 89 91  1  6  0  0  0
 89167  1  1  0  0  0
 91 92  1  0  0  0  0
 91168  1  0  0  0  0
 91169  1  6  0  0  0
 92 93  1  0  0  0  0
 92170  1  0  0  0  0
 92171  1  1  0  0  0
 93 94  1  0  0  0  0
 93172  1  0  0  0  0
 93173  1  6  0  0  0
 94 95  1  1  0  0  0
 94 96  1  6  0  0  0
 95174  1  0  0  0  0
 95175  1  1  0  0  0
 95176  1  0  0  0  0
 96177  1  0  0  0  0
 96178  1  0  0  0  0
 96179  1  6  0  0  0
M  END
>  <Formula> (253)
C55H83N17O21S3

>  <Name> (253)
BLEOMYCIN A

>  <CAS-Nr> (253)
---

>  <Compound classification> (253)
AB-GlPe

>  <Microorganism> (253)
Shigella dysenteriae

>  <Microorganism type> (253)
Ohara

>  <Microorganism classification> (253)
Bac-

>  <MIC> (253)
25

>  <Annotation> (253)
MIC: 25-50 ppm

>  <Method abbreviation> (253)
ADlT

>  <Ref-Nr> (253)
7240

>  <Marker> (253)
0

>  <Method> (253)
Agar dilution test; Inoculum size: ---; Medium: ---; pH: ---; Incubation-temperature: -- degrees Centigrade; Incubation-time: ---; Solubility enhancer: ---;

>  <Reference> (253)
Umezawa, H., Maeda, K., Okami, Y., Takeuchi, T.: Bleomycin and Process for the Preparation Thereof; US 3,681,491 (1972)

>  <mol_id> (253)
4154

>  <LD50-mou-ip> (253)
>125

>  <MolWeight> (253)
1414.54

>  <Nickname> (253)
Bleomycin A Complex (structure Bleomycin A2)

>  <other Names> (253)
Bleomycin A complex

$$$$

csChmFindW11180110282D

179184  0  0  0  0  0  0  0  0999 V2000
   30.2071   14.4421    6.2698 C   0  0  0  0  0  0  0  0  0  0  0  0
   31.2026   14.6786    4.8220 N   0  0  0  0  0  0  0  0  0  0  0  0
   31.0539   13.5086    3.4834 C   0  0  0  0  0  0  0  0  0  0  0  0
   29.8489   12.0663    3.6063 C   0  0  0  0  0  0  0  0  0  0  0  0
   28.8325   11.9496    5.1413 C   0  0  0  0  0  0  0  0  0  0  0  0
   29.0509   13.1251    6.4694 N   0  0  0  0  0  0  0  0  0  0  0  0
   32.0507   13.7548    1.9841 N   0  0  0  0  0  0  0  0  0  0  0  0
   29.7661   10.7301    2.1302 C   0  0  0  0  0  0  0  0  0  0  0  0
   27.3938   10.6037    5.4081 C   0  0  0  0  0  0  0  0  0  0  0  0
   26.4743   10.1802    3.9116 N   0  0  0  0  0  0  0  0  0  0  0  0
   24.7286    9.3308    3.9769 C   0  0  0  0  0  0  0  0  0  0  0  0
   24.6697    7.7362    2.7156 C   0  0  0  0  0  0  0  0  0  0  0  0
   26.0567    6.5688    3.2125 O   0  0  0  0  0  0  0  0  0  0  0  0
   26.2214    5.0099    2.1699 C   0  0  0  0  0  0  0  0  0  0  0  0
   26.9704   10.0712    6.8701 O   0  0  0  0  0  0  0  0  0  0  0  0
   24.7657    8.3332    0.8200 C   0  0  0  0  0  0  0  0  0  0  0  0
   23.3993    8.6716   -0.3514 N   0  0  0  0  0  0  0  0  0  0  0  0
   24.1192    9.1791   -1.9103 C   0  0  0  0  0  0  0  0  0  0  0  0
   25.8660    9.1958   -1.8443 N   0  0  0  0  0  0  0  0  0  0  0  0
   26.2580    8.6634   -0.1745 C   0  0  0  0  0  0  0  0  0  0  0  0
   24.5493    4.1662    2.2068 O   0  0  0  0  0  0  0  0  0  0  0  0
   24.5069    2.6395    1.1217 C   0  0  0  0  0  0  0  0  0  0  0  0
   25.9097    1.3042    1.6741 C   0  0  0  0  0  0  0  0  0  0  0  0
   27.7303    2.1185    1.9130 C   0  0  0  0  0  0  0  0  0  0  0  0
   27.6057    3.8130    2.9926 C   0  0  0  0  0  0  0  0  0  0  0  0
   29.2420    4.7365    3.0614 O   0  0  0  0  0  0  0  0  0  0  0  0
   30.4743    4.0458    4.2984 C   0  0  0  0  0  0  0  0  0  0  0  0
   29.8711    4.3826    6.0404 O   0  0  0  0  0  0  0  0  0  0  0  0
   29.7215    6.2004    6.4805 C   0  0  0  0  0  0  0  0  0  0  0  0
   31.4669    7.1799    6.2350 C   0  0  0  0  0  0  0  0  0  0  0  0
   32.3335    6.8145    4.4502 C   0  0  0  0  0  0  0  0  0  0  0  0
   32.2837    4.8469    4.0227 C   0  0  0  0  0  0  0  0  0  0  0  0
   22.6493    1.8646    1.2389 C   0  0  0  0  0  0  0  0  0  0  0  0
   22.6913    0.1099    0.6472 O   0  5  0  0  0  0  0  0  0  0  0  0
   25.3734    0.4570    3.2750 O   0  0  0  0  0  0  0  0  0  0  0  0
   28.4549    2.4956    0.2068 O   0  0  0  0  0  0  0  0  0  0  0  0
   33.5243    3.9434    5.1317 O   0  0  0  0  0  0  0  0  0  0  0  0
   29.0258    6.2722    8.3720 C   0  0  0  0  0  0  0  0  0  0  0  0
   28.9423    8.0446    9.0226 O   0  0  0  0  0  0  0  0  0  0  0  0
   31.0796    9.0272    6.3748 O   0  0  0  0  0  0  0  0  0  0  0  0
   34.1376    7.3385    4.4213 O   0  0  0  0  0  0  0  0  0  0  0  0
   34.5675    9.0664    4.2603 C   0  0  0  0  0  0  0  0  0  0  0  0
   33.4936   10.2435    4.2367 O   0  0  0  0  0  0  0  0  0  0  0  0
   36.3041    9.4781    4.0982 N   0  0  0  0  0  0  0  0  0  0  0  0
   30.3168   15.8157    7.7200 C   0  0  0  0  0  0  0  0  0  0  0  0
   32.2211   16.5113    7.9461 C   0  0  0  0  0  0  0  0  0  0  0  0
   32.3800   17.9551    9.3313 C   0  0  0  0  0  0  0  0  0  0  0  0
   29.1491   17.3060    7.3098 N   0  0  0  0  0  0  0  0  0  0  0  0
   31.1380   18.6922   10.0051 O   0  0  0  0  0  0  0  0  0  0  0  0
   34.0657   18.4155    9.7540 N   0  0  0  0  0  0  0  0  0  0  0  0
   27.2744   16.9370    7.6219 C   0  0  0  0  0  0  0  0  0  0  0  0
   26.1166   18.2923    6.6488 C   0  0  0  0  0  0  0  0  0  0  0  0
   24.2611   18.0573    7.1896 N   0  0  0  0  0  0  0  0  0  0  0  0
   26.2362   18.2242    4.6415 C   0  0  0  0  0  0  0  0  0  0  0  0
   25.3503   19.1381    3.6829 O   0  0  0  0  0  0  0  0  0  0  0  0
   27.3997   17.0328    3.9582 N   0  0  0  0  0  0  0  0  0  0  0  0
   23.3502   10.7573    3.5912 C   0  0  0  0  0  0  0  0  0  0  0  0
   21.8111   10.1568    2.8647 N   0  0  0  0  0  0  0  0  0  0  0  0
   20.4393   11.3787    2.2193 C   0  0  0  0  0  0  0  0  0  0  0  0
   18.7266   10.2904    2.1036 C   0  0  0  0  0  0  0  0  0  0  0  0
   17.0334   11.0331    1.2494 C   0  0  0  0  0  0  0  0  0  0  0  0
   15.5607    9.6666    1.5215 C   0  0  0  0  0  0  0  0  0  0  0  0
   13.9855   10.0698    0.7295 N   0  0  0  0  0  0  0  0  0  0  0  0
   12.4772    8.8521    0.7242 C   0  0  0  0  0  0  0  0  0  0  0  0
   10.8385    9.9611    0.3358 C   0  0  0  0  0  0  0  0  0  0  0  0
    9.2669    9.0943    0.5521 N   0  0  0  0  0  0  0  0  0  0  0  0
    7.5662    9.9639    0.2149 C   0  0  0  0  0  0  0  0  0  0  0  0
    6.3128    8.6584   -0.7069 C   0  0  0  0  0  0  0  0  0  0  0  0
    4.5292    9.4626   -1.0694 C   0  0  0  0  0  0  0  0  0  0  0  0
   23.6350   12.3020    3.8850 O   0  0  0  0  0  0  0  0  0  0  0  0
   21.0605   12.2364    0.4889 C   0  0  0  0  0  0  0  0  0  0  0  0
   19.1034    8.6210    1.2924 O   0  0  0  0  0  0  0  0  0  0  0  0
   17.1608   11.4539   -0.7397 C   0  0  0  0  0  0  0  0  0  0  0  0
   15.8059    8.3246    2.3532 O   0  0  0  0  0  0  0  0  0  0  0  0
   12.6591    7.3816   -0.6660 C   0  0  0  0  0  0  0  0  0  0  0  0
   12.9663    8.0755   -2.5367 C   0  0  0  0  0  0  0  0  0  0  0  0
   14.1001    6.2568   -0.1930 O   0  0  0  0  0  0  0  0  0  0  0  0
   10.9688   11.4752   -0.1594 O   0  0  0  0  0  0  0  0  0  0  0  0
    2.6193    8.8262   -0.0978 S   0  0  0  0  0  0  0  0  0  0  0  0
    1.5199   10.4151   -1.3072 C   0  0  0  0  0  0  0  0  0  0  0  0
    2.6804   11.3208   -2.3716 C   0  0  0  0  0  0  0  0  0  0  0  0
    4.4033   10.7573   -2.2078 N   0  0  0  0  0  0  0  0  0  0  0  0
    2.2135   12.7878   -3.5602 C   0  0  0  0  0  0  0  0  0  0  0  0
    0.0990   13.3814   -4.0362 S   0  0  0  0  0  0  0  0  0  0  0  0
    0.8597   15.0290   -5.4024 C   0  0  0  0  0  0  0  0  0  0  0  0
    2.6738   15.0104   -5.4192 C   0  0  0  0  0  0  0  0  0  0  0  0
    3.4249   13.7229   -4.3786 N   0  0  0  0  0  0  0  0  0  0  0  0
    3.7265   16.2830   -6.4658 C   0  0  0  0  0  0  0  0  0  0  0  0
    5.5003   15.9750   -6.3373 N   0  0  0  0  0  0  0  0  0  0  0  0
    3.0952   17.4875   -7.3433 O   0  0  0  0  0  0  0  0  0  0  0  0
    6.7823   17.0759   -7.2859 C   0  0  0  0  0  0  0  0  0  0  0  0
    8.6416   16.7776   -6.5189 C   0  0  0  0  0  0  0  0  0  0  0  0
   10.0243   17.9830   -7.3916 C   0  0  0  0  0  0  0  0  0  0  0  0
   12.2583   17.5534   -6.6205 S   0  3  0  0  0  0  0  0  0  0  0  0
   12.1446   18.4659   -4.4158 C   0  0  0  0  0  0  0  0  0  0  0  0
   13.3824   19.3596   -7.7149 C   0  0  0  0  0  0  0  0  0  0  0  0
   31.9455   12.8830    0.9122 H   0  0  0  0  0  0  0  0  0  0  0  0
   32.9159   14.8383    1.9329 H   0  0  0  0  0  0  0  0  0  0  0  0
   28.8732   11.2240    1.0694 H   0  0  0  0  0  0  0  0  0  0  0  0
   29.3246    9.4123    2.6056 H   0  0  0  0  0  0  0  0  0  0  0  0
   31.0837   10.4756    1.5314 H   0  0  0  0  0  0  0  0  0  0  0  0
   26.8754   10.6930    2.7481 H   0  0  0  0  0  0  0  0  0  0  0  0
   24.4314    8.8402    5.3370 H   0  0  0  0  0  0  0  0  0  0  0  0
   23.3871    7.0401    2.9210 H   0  0  0  0  0  0  0  0  0  0  0  0
   26.5773    5.3772    0.7940 H   0  0  0  0  0  0  0  0  0  0  0  0
   22.0486    8.5462   -0.0813 H   0  0  0  0  0  0  0  0  0  0  0  0
   23.3045    9.5241   -3.0554 H   0  0  0  0  0  0  0  0  0  0  0  0
   27.6271    8.5021    0.2648 H   0  0  0  0  0  0  0  0  0  0  0  0
   24.7582    3.0537   -0.2731 H   0  0  0  0  0  0  0  0  0  0  0  0
   26.0046    0.2296    0.6656 H   0  0  0  0  0  0  0  0  0  0  0  0
   28.6190    1.1261    2.5410 H   0  0  0  0  0  0  0  0  0  0  0  0
   27.1620    3.4961    4.3624 H   0  0  0  0  0  0  0  0  0  0  0  0
   30.5728    2.5876    4.1283 H   0  0  0  0  0  0  0  0  0  0  0  0
   28.6999    6.8088    5.6088 H   0  0  0  0  0  0  0  0  0  0  0  0
   32.3949    6.8219    7.3215 H   0  0  0  0  0  0  0  0  0  0  0  0
   31.6067    7.5190    3.3797 H   0  0  0  0  0  0  0  0  0  0  0  0
   32.7182    4.6134    2.6312 H   0  0  0  0  0  0  0  0  0  0  0  0
   21.6834    2.5960    0.4033 H   0  0  0  0  0  0  0  0  0  0  0  0
   22.1505    1.8219    2.6238 H   0  0  0  0  0  0  0  0  0  0  0  0
   24.2438    0.0000    3.0237 H   0  0  0  0  0  0  0  0  0  0  0  0
   28.1608    1.5389   -0.5333 H   0  0  0  0  0  0  0  0  0  0  0  0
   33.3502    2.7197    4.9910 H   0  0  0  0  0  0  0  0  0  0  0  0
   29.8970    5.5124    9.2841 H   0  0  0  0  0  0  0  0  0  0  0  0
   27.6690    5.7021    8.4415 H   0  0  0  0  0  0  0  0  0  0  0  0
   28.6412    8.8033    8.0772 H   0  0  0  0  0  0  0  0  0  0  0  0
   32.0565    9.7073    6.0310 H   0  0  0  0  0  0  0  0  0  0  0  0
   37.1790    8.4709    4.1122 H   0  0  0  0  0  0  0  0  0  0  0  0
   36.5992   10.7732    3.9769 H   0  0  0  0  0  0  0  0  0  0  0  0
   29.9126   15.2202    9.0098 H   0  0  0  0  0  0  0  0  0  0  0  0
   32.7138   17.1020    6.6875 H   0  0  0  0  0  0  0  0  0  0  0  0
   33.1117   15.3943    8.3141 H   0  0  0  0  0  0  0  0  0  0  0  0
   29.5008   18.3691    8.0636 H   0  0  0  0  0  0  0  0  0  0  0  0
   34.2015   19.3885   10.6577 H   0  0  0  0  0  0  0  0  0  0  0  0
   35.0879   17.7914    9.1635 H   0  0  0  0  0  0  0  0  0  0  0  0
   27.0286   17.0020    9.0746 H   0  0  0  0  0  0  0  0  0  0  0  0
   26.8975   15.5887    7.1690 H   0  0  0  0  0  0  0  0  0  0  0  0
   26.5295   19.6552    7.0428 H   0  0  0  0  0  0  0  0  0  0  0  0
   23.4490   18.8176    6.4274 H   0  0  0  0  0  0  0  0  0  0  0  0
   23.8556   16.7863    6.9953 H   0  0  0  0  0  0  0  0  0  0  0  0
   27.4735   16.9740    2.6271 H   0  0  0  0  0  0  0  0  0  0  0  0
   28.1408   16.2719    4.7689 H   0  0  0  0  0  0  0  0  0  0  0  0
   21.7378    8.8796    2.4785 H   0  0  0  0  0  0  0  0  0  0  0  0
   20.2344   12.4494    3.2183 H   0  0  0  0  0  0  0  0  0  0  0  0
   18.4021    9.9669    3.5130 H   0  0  0  0  0  0  0  0  0  0  0  0
   16.6275   12.2523    1.9783 H   0  0  0  0  0  0  0  0  0  0  0  0
   13.8315   11.2247    0.0752 H   0  0  0  0  0  0  0  0  0  0  0  0
   12.2951    8.2806    2.0724 H   0  0  0  0  0  0  0  0  0  0  0  0
    9.2777    7.8541    1.0473 H   0  0  0  0  0  0  0  0  0  0  0  0
    7.7358   11.1557   -0.6351 H   0  0  0  0  0  0  0  0  0  0  0  0
    6.9970   10.3962    1.5038 H   0  0  0  0  0  0  0  0  0  0  0  0
    6.1606    7.4502    0.1237 H   0  0  0  0  0  0  0  0  0  0  0  0
    6.9008    8.2246   -1.9882 H   0  0  0  0  0  0  0  0  0  0  0  0
   20.3138   13.4704    0.2044 H   0  0  0  0  0  0  0  0  0  0  0  0
   20.9434   11.3126   -0.6488 H   0  0  0  0  0  0  0  0  0  0  0  0
   22.4699   12.6529    0.5615 H   0  0  0  0  0  0  0  0  0  0  0  0
   18.1451    7.8690    1.5810 H   0  0  0  0  0  0  0  0  0  0  0  0
   15.8584   11.8025   -1.3262 H   0  0  0  0  0  0  0  0  0  0  0  0
   17.6878   10.3128   -1.5046 H   0  0  0  0  0  0  0  0  0  0  0  0
   17.9887   12.6287   -1.0218 H   0  0  0  0  0  0  0  0  0  0  0  0
   11.4543    6.5288   -0.6552 H   0  0  0  0  0  0  0  0  0  0  0  0
   13.1106    6.9619   -3.4899 H   0  0  0  0  0  0  0  0  0  0  0  0
   14.1925    8.8863   -2.6156 H   0  0  0  0  0  0  0  0  0  0  0  0
   11.8418    8.9058   -2.9971 H   0  0  0  0  0  0  0  0  0  0  0  0
   14.0932    5.2453   -0.9172 H   0  0  0  0  0  0  0  0  0  0  0  0
    0.0917   10.6449   -1.2041 H   0  0  0  0  0  0  0  0  0  0  0  0
    0.0000   15.9418   -6.1316 H   0  0  0  0  0  0  0  0  0  0  0  0
    5.9096   14.9065   -5.6498 H   0  0  0  0  0  0  0  0  0  0  0  0
    6.4241   18.4989   -7.1418 H   0  0  0  0  0  0  0  0  0  0  0  0
    6.7560   16.7260   -8.7172 H   0  0  0  0  0  0  0  0  0  0  0  0
    9.0143   15.3622   -6.7112 H   0  0  0  0  0  0  0  0  0  0  0  0
    8.5984   17.0326   -5.0664 H   0  0  0  0  0  0  0  0  0  0  0  0
    9.6854   19.3967   -7.1578 H   0  0  0  0  0  0  0  0  0  0  0  0
   10.0353   17.7500   -8.8470 H   0  0  0  0  0  0  0  0  0  0  0  0
   13.5086   18.5619   -3.8735 H   0  0  0  0  0  0  0  0  0  0  0  0
   11.3611   17.5649   -3.5578 H   0  0  0  0  0  0  0  0  0  0  0  0
   11.5272   19.8002   -4.4151 H   0  0  0  0  0  0  0  0  0  0  0  0
   14.7721   19.4147   -7.2362 H   0  0  0  0  0  0  0  0  0  0  0  0
   12.7267   20.6475   -7.4441 H   0  0  0  0  0  0  0  0  0  0  0  0
   13.3849   19.1125   -9.1650 H   0  0  0  0  0  0  0  0  0  0  0  0
  1  2  2  0  0  0  0
  1  6  1  0  0  0  0
  1 45  1  1  0  0  0
  2  3  1  6  0  0  0
  3  4  2  0  0  0  0
  3  7  1  6  0  0  0
  4  5  1  1  0  0  0
  4  8  1  6  0  0  0
  5  6  2  0  0  0  0
  5  9  1  0  0  0  0
  7 97  1  6  0  0  0
  7 98  1  0  0  0  0
  8 99  1  6  0  0  0
  8100  1  0  0  0  0
  8101  1  0  0  0  0
  9 10  1  6  0  0  0
  9 15  2  0  0  0  0
 10 11  1  0  0  0  0
 10102  1  6  0  0  0
 11 12  1  6  0  0  0
 11 57  1  0  0  0  0
 11103  1  1  0  0  0
 12 13  1  0  0  0  0
 12 16  1  6  0  0  0
 12104  1  0  0  0  0
 13 14  1  6  0  0  0
 14 21  1  0  0  0  0
 14 25  1  0  0  0  0
 14105  1  6  0  0  0
 16 17  1  6  0  0  0
 16 20  2  0  0  0  0
 17 18  1  6  0  0  0
 17106  1  0  0  0  0
 18 19  2  0  0  0  0
 18107  1  6  0  0  0
 19 20  1  1  0  0  0
 20108  1  0  0  0  0
 21 22  1  6  0  0  0
 22 23  1  0  0  0  0
 22 33  1  0  0  0  0
 22109  1  6  0  0  0
 23 24  1  0  0  0  0
 23 35  1  1  0  0  0
 23110  1  6  0  0  0
 24 25  1  1  0  0  0
 24 36  1  6  0  0  0
 24111  1  0  0  0  0
 25 26  1  0  0  0  0
 25112  1  1  0  0  0
 26 27  1  1  0  0  0
 27 28  1  1  0  0  0
 27 32  1  0  0  0  0
 27113  1  0  0  0  0
 28 29  1  0  0  0  0
 29 30  1  0  0  0  0
 29 38  1  1  0  0  0
 29114  1  6  0  0  0
 30 31  1  6  0  0  0
 30 40  1  0  0  0  0
 30115  1  1  0  0  0
 31 32  1  0  0  0  0
 31 41  1  0  0  0  0
 31116  1  6  0  0  0
 32 37  1  1  0  0  0
 32117  1  6  0  0  0
 33 34  1  0  0  0  0
 33118  1  6  0  0  0
 33119  1  1  0  0  0
 35120  1  0  0  0  0
 36121  1  6  0  0  0
 37122  1  0  0  0  0
 38 39  1  0  0  0  0
 38123  1  1  0  0  0
 38124  1  0  0  0  0
 39125  1  6  0  0  0
 40126  1  0  0  0  0
 41 42  1  0  0  0  0
 42 43  2  0  0  0  0
 42 44  1  0  0  0  0
 44127  1  0  0  0  0
 44128  1  0  0  0  0
 45 46  1  0  0  0  0
 45 48  1  0  0  0  0
 45129  1  1  0  0  0
 46 47  1  1  0  0  0
 46130  1  6  0  0  0
 46131  1  0  0  0  0
 47 49  2  0  0  0  0
 47 50  1  0  0  0  0
 48 51  1  0  0  0  0
 48132  1  1  0  0  0
 50133  1  1  0  0  0
 50134  1  0  0  0  0
 51 52  1  6  0  0  0
 51135  1  1  0  0  0
 51136  1  0  0  0  0
 52 53  1  0  0  0  0
 52 54  1  6  0  0  0
 52137  1  0  0  0  0
 53138  1  6  0  0  0
 53139  1  0  0  0  0
 54 55  2  0  0  0  0
 54 56  1  0  0  0  0
 56140  1  6  0  0  0
 56141  1  1  0  0  0
 57 58  1  0  0  0  0
 57 70  2  0  0  0  0
 58 59  1  0  0  0  0
 58142  1  0  0  0  0
 59 60  1  0  0  0  0
 59 71  1  6  0  0  0
 59143  1  1  0  0  0
 60 61  1  0  0  0  0
 60 72  1  0  0  0  0
 60144  1  1  0  0  0
 61 62  1  0  0  0  0
 61 73  1  6  0  0  0
 61145  1  1  0  0  0
 62 63  1  0  0  0  0
 62 74  2  0  0  0  0
 63 64  1  0  0  0  0
 63146  1  6  0  0  0
 64 65  1  0  0  0  0
 64 75  1  6  0  0  0
 64147  1  1  0  0  0
 65 66  1  0  0  0  0
 65 78  2  0  0  0  0
 66 67  1  0  0  0  0
 66148  1  0  0  0  0
 67 68  1  6  0  0  0
 67149  1  6  0  0  0
 67150  1  1  0  0  0
 68 69  1  0  0  0  0
 68151  1  1  0  0  0
 68152  1  6  0  0  0
 69 79  1  0  0  0  0
 69 82  2  0  0  0  0
 71153  1  0  0  0  0
 71154  1  6  0  0  0
 71155  1  0  0  0  0
 72156  1  0  0  0  0
 73157  1  0  0  0  0
 73158  1  6  0  0  0
 73159  1  0  0  0  0
 75 76  1  6  0  0  0
 75 77  1  0  0  0  0
 75160  1  0  0  0  0
 76161  1  6  0  0  0
 76162  1  0  0  0  0
 76163  1  0  0  0  0
 77164  1  6  0  0  0
 79 80  1  6  0  0  0
 80 81  2  0  0  0  0
 80165  1  0  0  0  0
 81 82  1  0  0  0  0
 81 83  1  6  0  0  0
 83 84  1  0  0  0  0
 83 87  2  0  0  0  0
 84 85  1  6  0  0  0
 85 86  2  0  0  0  0
 85166  1  6  0  0  0
 86 87  1  1  0  0  0
 86 88  1  6  0  0  0
 88 89  1  0  0  0  0
 88 90  2  0  0  0  0
 89 91  1  6  0  0  0
 89167  1  1  0  0  0
 91 92  1  0  0  0  0
 91168  1  0  0  0  0
 91169  1  6  0  0  0
 92 93  1  0  0  0  0
 92170  1  0  0  0  0
 92171  1  1  0  0  0
 93 94  1  0  0  0  0
 93172  1  0  0  0  0
 93173  1  6  0  0  0
 94 95  1  1  0  0  0
 94 96  1  6  0  0  0
 95174  1  0  0  0  0
 95175  1  1  0  0  0
 95176  1  0  0  0  0
 96177  1  0  0  0  0
 96178  1  0  0  0  0
 96179  1  6  0  0  0
M  END
>  <Formula> (254)
C55H83N17O21S3

>  <Name> (254)
BLEOMYCIN A

>  <CAS-Nr> (254)
---

>  <Compound classification> (254)
AB-GlPe

>  <Microorganism> (254)
Shigella flexneri

>  <Microorganism type> (254)
1a-1701

>  <Microorganism classification> (254)
Bac-

>  <MIC> (254)
0.2

>  <Method abbreviation> (254)
ADlT

>  <Ref-Nr> (254)
7240

>  <Marker> (254)
0

>  <Method> (254)
Agar dilution test; Inoculum size: ---; Medium: ---; pH: ---; Incubation-temperature: -- degrees Centigrade; Incubation-time: ---; Solubility enhancer: ---;

>  <Reference> (254)
Umezawa, H., Maeda, K., Okami, Y., Takeuchi, T.: Bleomycin and Process for the Preparation Thereof; US 3,681,491 (1972)

>  <mol_id> (254)
4154

>  <LD50-mou-ip> (254)
>125

>  <MolWeight> (254)
1414.54

>  <Nickname> (254)
Bleomycin A Complex (structure Bleomycin A2)

>  <other Names> (254)
Bleomycin A complex

$$$$

csChmFindW11180110282D

179184  0  0  0  0  0  0  0  0999 V2000
   30.2071   14.4421    6.2698 C   0  0  0  0  0  0  0  0  0  0  0  0
   31.2026   14.6786    4.8220 N   0  0  0  0  0  0  0  0  0  0  0  0
   31.0539   13.5086    3.4834 C   0  0  0  0  0  0  0  0  0  0  0  0
   29.8489   12.0663    3.6063 C   0  0  0  0  0  0  0  0  0  0  0  0
   28.8325   11.9496    5.1413 C   0  0  0  0  0  0  0  0  0  0  0  0
   29.0509   13.1251    6.4694 N   0  0  0  0  0  0  0  0  0  0  0  0
   32.0507   13.7548    1.9841 N   0  0  0  0  0  0  0  0  0  0  0  0
   29.7661   10.7301    2.1302 C   0  0  0  0  0  0  0  0  0  0  0  0
   27.3938   10.6037    5.4081 C   0  0  0  0  0  0  0  0  0  0  0  0
   26.4743   10.1802    3.9116 N   0  0  0  0  0  0  0  0  0  0  0  0
   24.7286    9.3308    3.9769 C   0  0  0  0  0  0  0  0  0  0  0  0
   24.6697    7.7362    2.7156 C   0  0  0  0  0  0  0  0  0  0  0  0
   26.0567    6.5688    3.2125 O   0  0  0  0  0  0  0  0  0  0  0  0
   26.2214    5.0099    2.1699 C   0  0  0  0  0  0  0  0  0  0  0  0
   26.9704   10.0712    6.8701 O   0  0  0  0  0  0  0  0  0  0  0  0
   24.7657    8.3332    0.8200 C   0  0  0  0  0  0  0  0  0  0  0  0
   23.3993    8.6716   -0.3514 N   0  0  0  0  0  0  0  0  0  0  0  0
   24.1192    9.1791   -1.9103 C   0  0  0  0  0  0  0  0  0  0  0  0
   25.8660    9.1958   -1.8443 N   0  0  0  0  0  0  0  0  0  0  0  0
   26.2580    8.6634   -0.1745 C   0  0  0  0  0  0  0  0  0  0  0  0
   24.5493    4.1662    2.2068 O   0  0  0  0  0  0  0  0  0  0  0  0
   24.5069    2.6395    1.1217 C   0  0  0  0  0  0  0  0  0  0  0  0
   25.9097    1.3042    1.6741 C   0  0  0  0  0  0  0  0  0  0  0  0
   27.7303    2.1185    1.9130 C   0  0  0  0  0  0  0  0  0  0  0  0
   27.6057    3.8130    2.9926 C   0  0  0  0  0  0  0  0  0  0  0  0
   29.2420    4.7365    3.0614 O   0  0  0  0  0  0  0  0  0  0  0  0
   30.4743    4.0458    4.2984 C   0  0  0  0  0  0  0  0  0  0  0  0
   29.8711    4.3826    6.0404 O   0  0  0  0  0  0  0  0  0  0  0  0
   29.7215    6.2004    6.4805 C   0  0  0  0  0  0  0  0  0  0  0  0
   31.4669    7.1799    6.2350 C   0  0  0  0  0  0  0  0  0  0  0  0
   32.3335    6.8145    4.4502 C   0  0  0  0  0  0  0  0  0  0  0  0
   32.2837    4.8469    4.0227 C   0  0  0  0  0  0  0  0  0  0  0  0
   22.6493    1.8646    1.2389 C   0  0  0  0  0  0  0  0  0  0  0  0
   22.6913    0.1099    0.6472 O   0  5  0  0  0  0  0  0  0  0  0  0
   25.3734    0.4570    3.2750 O   0  0  0  0  0  0  0  0  0  0  0  0
   28.4549    2.4956    0.2068 O   0  0  0  0  0  0  0  0  0  0  0  0
   33.5243    3.9434    5.1317 O   0  0  0  0  0  0  0  0  0  0  0  0
   29.0258    6.2722    8.3720 C   0  0  0  0  0  0  0  0  0  0  0  0
   28.9423    8.0446    9.0226 O   0  0  0  0  0  0  0  0  0  0  0  0
   31.0796    9.0272    6.3748 O   0  0  0  0  0  0  0  0  0  0  0  0
   34.1376    7.3385    4.4213 O   0  0  0  0  0  0  0  0  0  0  0  0
   34.5675    9.0664    4.2603 C   0  0  0  0  0  0  0  0  0  0  0  0
   33.4936   10.2435    4.2367 O   0  0  0  0  0  0  0  0  0  0  0  0
   36.3041    9.4781    4.0982 N   0  0  0  0  0  0  0  0  0  0  0  0
   30.3168   15.8157    7.7200 C   0  0  0  0  0  0  0  0  0  0  0  0
   32.2211   16.5113    7.9461 C   0  0  0  0  0  0  0  0  0  0  0  0
   32.3800   17.9551    9.3313 C   0  0  0  0  0  0  0  0  0  0  0  0
   29.1491   17.3060    7.3098 N   0  0  0  0  0  0  0  0  0  0  0  0
   31.1380   18.6922   10.0051 O   0  0  0  0  0  0  0  0  0  0  0  0
   34.0657   18.4155    9.7540 N   0  0  0  0  0  0  0  0  0  0  0  0
   27.2744   16.9370    7.6219 C   0  0  0  0  0  0  0  0  0  0  0  0
   26.1166   18.2923    6.6488 C   0  0  0  0  0  0  0  0  0  0  0  0
   24.2611   18.0573    7.1896 N   0  0  0  0  0  0  0  0  0  0  0  0
   26.2362   18.2242    4.6415 C   0  0  0  0  0  0  0  0  0  0  0  0
   25.3503   19.1381    3.6829 O   0  0  0  0  0  0  0  0  0  0  0  0
   27.3997   17.0328    3.9582 N   0  0  0  0  0  0  0  0  0  0  0  0
   23.3502   10.7573    3.5912 C   0  0  0  0  0  0  0  0  0  0  0  0
   21.8111   10.1568    2.8647 N   0  0  0  0  0  0  0  0  0  0  0  0
   20.4393   11.3787    2.2193 C   0  0  0  0  0  0  0  0  0  0  0  0
   18.7266   10.2904    2.1036 C   0  0  0  0  0  0  0  0  0  0  0  0
   17.0334   11.0331    1.2494 C   0  0  0  0  0  0  0  0  0  0  0  0
   15.5607    9.6666    1.5215 C   0  0  0  0  0  0  0  0  0  0  0  0
   13.9855   10.0698    0.7295 N   0  0  0  0  0  0  0  0  0  0  0  0
   12.4772    8.8521    0.7242 C   0  0  0  0  0  0  0  0  0  0  0  0
   10.8385    9.9611    0.3358 C   0  0  0  0  0  0  0  0  0  0  0  0
    9.2669    9.0943    0.5521 N   0  0  0  0  0  0  0  0  0  0  0  0
    7.5662    9.9639    0.2149 C   0  0  0  0  0  0  0  0  0  0  0  0
    6.3128    8.6584   -0.7069 C   0  0  0  0  0  0  0  0  0  0  0  0
    4.5292    9.4626   -1.0694 C   0  0  0  0  0  0  0  0  0  0  0  0
   23.6350   12.3020    3.8850 O   0  0  0  0  0  0  0  0  0  0  0  0
   21.0605   12.2364    0.4889 C   0  0  0  0  0  0  0  0  0  0  0  0
   19.1034    8.6210    1.2924 O   0  0  0  0  0  0  0  0  0  0  0  0
   17.1608   11.4539   -0.7397 C   0  0  0  0  0  0  0  0  0  0  0  0
   15.8059    8.3246    2.3532 O   0  0  0  0  0  0  0  0  0  0  0  0
   12.6591    7.3816   -0.6660 C   0  0  0  0  0  0  0  0  0  0  0  0
   12.9663    8.0755   -2.5367 C   0  0  0  0  0  0  0  0  0  0  0  0
   14.1001    6.2568   -0.1930 O   0  0  0  0  0  0  0  0  0  0  0  0
   10.9688   11.4752   -0.1594 O   0  0  0  0  0  0  0  0  0  0  0  0
    2.6193    8.8262   -0.0978 S   0  0  0  0  0  0  0  0  0  0  0  0
    1.5199   10.4151   -1.3072 C   0  0  0  0  0  0  0  0  0  0  0  0
    2.6804   11.3208   -2.3716 C   0  0  0  0  0  0  0  0  0  0  0  0
    4.4033   10.7573   -2.2078 N   0  0  0  0  0  0  0  0  0  0  0  0
    2.2135   12.7878   -3.5602 C   0  0  0  0  0  0  0  0  0  0  0  0
    0.0990   13.3814   -4.0362 S   0  0  0  0  0  0  0  0  0  0  0  0
    0.8597   15.0290   -5.4024 C   0  0  0  0  0  0  0  0  0  0  0  0
    2.6738   15.0104   -5.4192 C   0  0  0  0  0  0  0  0  0  0  0  0
    3.4249   13.7229   -4.3786 N   0  0  0  0  0  0  0  0  0  0  0  0
    3.7265   16.2830   -6.4658 C   0  0  0  0  0  0  0  0  0  0  0  0
    5.5003   15.9750   -6.3373 N   0  0  0  0  0  0  0  0  0  0  0  0
    3.0952   17.4875   -7.3433 O   0  0  0  0  0  0  0  0  0  0  0  0
    6.7823   17.0759   -7.2859 C   0  0  0  0  0  0  0  0  0  0  0  0
    8.6416   16.7776   -6.5189 C   0  0  0  0  0  0  0  0  0  0  0  0
   10.0243   17.9830   -7.3916 C   0  0  0  0  0  0  0  0  0  0  0  0
   12.2583   17.5534   -6.6205 S   0  3  0  0  0  0  0  0  0  0  0  0
   12.1446   18.4659   -4.4158 C   0  0  0  0  0  0  0  0  0  0  0  0
   13.3824   19.3596   -7.7149 C   0  0  0  0  0  0  0  0  0  0  0  0
   31.9455   12.8830    0.9122 H   0  0  0  0  0  0  0  0  0  0  0  0
   32.9159   14.8383    1.9329 H   0  0  0  0  0  0  0  0  0  0  0  0
   28.8732   11.2240    1.0694 H   0  0  0  0  0  0  0  0  0  0  0  0
   29.3246    9.4123    2.6056 H   0  0  0  0  0  0  0  0  0  0  0  0
   31.0837   10.4756    1.5314 H   0  0  0  0  0  0  0  0  0  0  0  0
   26.8754   10.6930    2.7481 H   0  0  0  0  0  0  0  0  0  0  0  0
   24.4314    8.8402    5.3370 H   0  0  0  0  0  0  0  0  0  0  0  0
   23.3871    7.0401    2.9210 H   0  0  0  0  0  0  0  0  0  0  0  0
   26.5773    5.3772    0.7940 H   0  0  0  0  0  0  0  0  0  0  0  0
   22.0486    8.5462   -0.0813 H   0  0  0  0  0  0  0  0  0  0  0  0
   23.3045    9.5241   -3.0554 H   0  0  0  0  0  0  0  0  0  0  0  0
   27.6271    8.5021    0.2648 H   0  0  0  0  0  0  0  0  0  0  0  0
   24.7582    3.0537   -0.2731 H   0  0  0  0  0  0  0  0  0  0  0  0
   26.0046    0.2296    0.6656 H   0  0  0  0  0  0  0  0  0  0  0  0
   28.6190    1.1261    2.5410 H   0  0  0  0  0  0  0  0  0  0  0  0
   27.1620    3.4961    4.3624 H   0  0  0  0  0  0  0  0  0  0  0  0
   30.5728    2.5876    4.1283 H   0  0  0  0  0  0  0  0  0  0  0  0
   28.6999    6.8088    5.6088 H   0  0  0  0  0  0  0  0  0  0  0  0
   32.3949    6.8219    7.3215 H   0  0  0  0  0  0  0  0  0  0  0  0
   31.6067    7.5190    3.3797 H   0  0  0  0  0  0  0  0  0  0  0  0
   32.7182    4.6134    2.6312 H   0  0  0  0  0  0  0  0  0  0  0  0
   21.6834    2.5960    0.4033 H   0  0  0  0  0  0  0  0  0  0  0  0
   22.1505    1.8219    2.6238 H   0  0  0  0  0  0  0  0  0  0  0  0
   24.2438    0.0000    3.0237 H   0  0  0  0  0  0  0  0  0  0  0  0
   28.1608    1.5389   -0.5333 H   0  0  0  0  0  0  0  0  0  0  0  0
   33.3502    2.7197    4.9910 H   0  0  0  0  0  0  0  0  0  0  0  0
   29.8970    5.5124    9.2841 H   0  0  0  0  0  0  0  0  0  0  0  0
   27.6690    5.7021    8.4415 H   0  0  0  0  0  0  0  0  0  0  0  0
   28.6412    8.8033    8.0772 H   0  0  0  0  0  0  0  0  0  0  0  0
   32.0565    9.7073    6.0310 H   0  0  0  0  0  0  0  0  0  0  0  0
   37.1790    8.4709    4.1122 H   0  0  0  0  0  0  0  0  0  0  0  0
   36.5992   10.7732    3.9769 H   0  0  0  0  0  0  0  0  0  0  0  0
   29.9126   15.2202    9.0098 H   0  0  0  0  0  0  0  0  0  0  0  0
   32.7138   17.1020    6.6875 H   0  0  0  0  0  0  0  0  0  0  0  0
   33.1117   15.3943    8.3141 H   0  0  0  0  0  0  0  0  0  0  0  0
   29.5008   18.3691    8.0636 H   0  0  0  0  0  0  0  0  0  0  0  0
   34.2015   19.3885   10.6577 H   0  0  0  0  0  0  0  0  0  0  0  0
   35.0879   17.7914    9.1635 H   0  0  0  0  0  0  0  0  0  0  0  0
   27.0286   17.0020    9.0746 H   0  0  0  0  0  0  0  0  0  0  0  0
   26.8975   15.5887    7.1690 H   0  0  0  0  0  0  0  0  0  0  0  0
   26.5295   19.6552    7.0428 H   0  0  0  0  0  0  0  0  0  0  0  0
   23.4490   18.8176    6.4274 H   0  0  0  0  0  0  0  0  0  0  0  0
   23.8556   16.7863    6.9953 H   0  0  0  0  0  0  0  0  0  0  0  0
   27.4735   16.9740    2.6271 H   0  0  0  0  0  0  0  0  0  0  0  0
   28.1408   16.2719    4.7689 H   0  0  0  0  0  0  0  0  0  0  0  0
   21.7378    8.8796    2.4785 H   0  0  0  0  0  0  0  0  0  0  0  0
   20.2344   12.4494    3.2183 H   0  0  0  0  0  0  0  0  0  0  0  0
   18.4021    9.9669    3.5130 H   0  0  0  0  0  0  0  0  0  0  0  0
   16.6275   12.2523    1.9783 H   0  0  0  0  0  0  0  0  0  0  0  0
   13.8315   11.2247    0.0752 H   0  0  0  0  0  0  0  0  0  0  0  0
   12.2951    8.2806    2.0724 H   0  0  0  0  0  0  0  0  0  0  0  0
    9.2777    7.8541    1.0473 H   0  0  0  0  0  0  0  0  0  0  0  0
    7.7358   11.1557   -0.6351 H   0  0  0  0  0  0  0  0  0  0  0  0
    6.9970   10.3962    1.5038 H   0  0  0  0  0  0  0  0  0  0  0  0
    6.1606    7.4502    0.1237 H   0  0  0  0  0  0  0  0  0  0  0  0
    6.9008    8.2246   -1.9882 H   0  0  0  0  0  0  0  0  0  0  0  0
   20.3138   13.4704    0.2044 H   0  0  0  0  0  0  0  0  0  0  0  0
   20.9434   11.3126   -0.6488 H   0  0  0  0  0  0  0  0  0  0  0  0
   22.4699   12.6529    0.5615 H   0  0  0  0  0  0  0  0  0  0  0  0
   18.1451    7.8690    1.5810 H   0  0  0  0  0  0  0  0  0  0  0  0
   15.8584   11.8025   -1.3262 H   0  0  0  0  0  0  0  0  0  0  0  0
   17.6878   10.3128   -1.5046 H   0  0  0  0  0  0  0  0  0  0  0  0
   17.9887   12.6287   -1.0218 H   0  0  0  0  0  0  0  0  0  0  0  0
   11.4543    6.5288   -0.6552 H   0  0  0  0  0  0  0  0  0  0  0  0
   13.1106    6.9619   -3.4899 H   0  0  0  0  0  0  0  0  0  0  0  0
   14.1925    8.8863   -2.6156 H   0  0  0  0  0  0  0  0  0  0  0  0
   11.8418    8.9058   -2.9971 H   0  0  0  0  0  0  0  0  0  0  0  0
   14.0932    5.2453   -0.9172 H   0  0  0  0  0  0  0  0  0  0  0  0
    0.0917   10.6449   -1.2041 H   0  0  0  0  0  0  0  0  0  0  0  0
    0.0000   15.9418   -6.1316 H   0  0  0  0  0  0  0  0  0  0  0  0
    5.9096   14.9065   -5.6498 H   0  0  0  0  0  0  0  0  0  0  0  0
    6.4241   18.4989   -7.1418 H   0  0  0  0  0  0  0  0  0  0  0  0
    6.7560   16.7260   -8.7172 H   0  0  0  0  0  0  0  0  0  0  0  0
    9.0143   15.3622   -6.7112 H   0  0  0  0  0  0  0  0  0  0  0  0
    8.5984   17.0326   -5.0664 H   0  0  0  0  0  0  0  0  0  0  0  0
    9.6854   19.3967   -7.1578 H   0  0  0  0  0  0  0  0  0  0  0  0
   10.0353   17.7500   -8.8470 H   0  0  0  0  0  0  0  0  0  0  0  0
   13.5086   18.5619   -3.8735 H   0  0  0  0  0  0  0  0  0  0  0  0
   11.3611   17.5649   -3.5578 H   0  0  0  0  0  0  0  0  0  0  0  0
   11.5272   19.8002   -4.4151 H   0  0  0  0  0  0  0  0  0  0  0  0
   14.7721   19.4147   -7.2362 H   0  0  0  0  0  0  0  0  0  0  0  0
   12.7267   20.6475   -7.4441 H   0  0  0  0  0  0  0  0  0  0  0  0
   13.3849   19.1125   -9.1650 H   0  0  0  0  0  0  0  0  0  0  0  0
  1  2  2  0  0  0  0
  1  6  1  0  0  0  0
  1 45  1  1  0  0  0
  2  3  1  6  0  0  0
  3  4  2  0  0  0  0
  3  7  1  6  0  0  0
  4  5  1  1  0  0  0
  4  8  1  6  0  0  0
  5  6  2  0  0  0  0
  5  9  1  0  0  0  0
  7 97  1  6  0  0  0
  7 98  1  0  0  0  0
  8 99  1  6  0  0  0
  8100  1  0  0  0  0
  8101  1  0  0  0  0
  9 10  1  6  0  0  0
  9 15  2  0  0  0  0
 10 11  1  0  0  0  0
 10102  1  6  0  0  0
 11 12  1  6  0  0  0
 11 57  1  0  0  0  0
 11103  1  1  0  0  0
 12 13  1  0  0  0  0
 12 16  1  6  0  0  0
 12104  1  0  0  0  0
 13 14  1  6  0  0  0
 14 21  1  0  0  0  0
 14 25  1  0  0  0  0
 14105  1  6  0  0  0
 16 17  1  6  0  0  0
 16 20  2  0  0  0  0
 17 18  1  6  0  0  0
 17106  1  0  0  0  0
 18 19  2  0  0  0  0
 18107  1  6  0  0  0
 19 20  1  1  0  0  0
 20108  1  0  0  0  0
 21 22  1  6  0  0  0
 22 23  1  0  0  0  0
 22 33  1  0  0  0  0
 22109  1  6  0  0  0
 23 24  1  0  0  0  0
 23 35  1  1  0  0  0
 23110  1  6  0  0  0
 24 25  1  1  0  0  0
 24 36  1  6  0  0  0
 24111  1  0  0  0  0
 25 26  1  0  0  0  0
 25112  1  1  0  0  0
 26 27  1  1  0  0  0
 27 28  1  1  0  0  0
 27 32  1  0  0  0  0
 27113  1  0  0  0  0
 28 29  1  0  0  0  0
 29 30  1  0  0  0  0
 29 38  1  1  0  0  0
 29114  1  6  0  0  0
 30 31  1  6  0  0  0
 30 40  1  0  0  0  0
 30115  1  1  0  0  0
 31 32  1  0  0  0  0
 31 41  1  0  0  0  0
 31116  1  6  0  0  0
 32 37  1  1  0  0  0
 32117  1  6  0  0  0
 33 34  1  0  0  0  0
 33118  1  6  0  0  0
 33119  1  1  0  0  0
 35120  1  0  0  0  0
 36121  1  6  0  0  0
 37122  1  0  0  0  0
 38 39  1  0  0  0  0
 38123  1  1  0  0  0
 38124  1  0  0  0  0
 39125  1  6  0  0  0
 40126  1  0  0  0  0
 41 42  1  0  0  0  0
 42 43  2  0  0  0  0
 42 44  1  0  0  0  0
 44127  1  0  0  0  0
 44128  1  0  0  0  0
 45 46  1  0  0  0  0
 45 48  1  0  0  0  0
 45129  1  1  0  0  0
 46 47  1  1  0  0  0
 46130  1  6  0  0  0
 46131  1  0  0  0  0
 47 49  2  0  0  0  0
 47 50  1  0  0  0  0
 48 51  1  0  0  0  0
 48132  1  1  0  0  0
 50133  1  1  0  0  0
 50134  1  0  0  0  0
 51 52  1  6  0  0  0
 51135  1  1  0  0  0
 51136  1  0  0  0  0
 52 53  1  0  0  0  0
 52 54  1  6  0  0  0
 52137  1  0  0  0  0
 53138  1  6  0  0  0
 53139  1  0  0  0  0
 54 55  2  0  0  0  0
 54 56  1  0  0  0  0
 56140  1  6  0  0  0
 56141  1  1  0  0  0
 57 58  1  0  0  0  0
 57 70  2  0  0  0  0
 58 59  1  0  0  0  0
 58142  1  0  0  0  0
 59 60  1  0  0  0  0
 59 71  1  6  0  0  0
 59143  1  1  0  0  0
 60 61  1  0  0  0  0
 60 72  1  0  0  0  0
 60144  1  1  0  0  0
 61 62  1  0  0  0  0
 61 73  1  6  0  0  0
 61145  1  1  0  0  0
 62 63  1  0  0  0  0
 62 74  2  0  0  0  0
 63 64  1  0  0  0  0
 63146  1  6  0  0  0
 64 65  1  0  0  0  0
 64 75  1  6  0  0  0
 64147  1  1  0  0  0
 65 66  1  0  0  0  0
 65 78  2  0  0  0  0
 66 67  1  0  0  0  0
 66148  1  0  0  0  0
 67 68  1  6  0  0  0
 67149  1  6  0  0  0
 67150  1  1  0  0  0
 68 69  1  0  0  0  0
 68151  1  1  0  0  0
 68152  1  6  0  0  0
 69 79  1  0  0  0  0
 69 82  2  0  0  0  0
 71153  1  0  0  0  0
 71154  1  6  0  0  0
 71155  1  0  0  0  0
 72156  1  0  0  0  0
 73157  1  0  0  0  0
 73158  1  6  0  0  0
 73159  1  0  0  0  0
 75 76  1  6  0  0  0
 75 77  1  0  0  0  0
 75160  1  0  0  0  0
 76161  1  6  0  0  0
 76162  1  0  0  0  0
 76163  1  0  0  0  0
 77164  1  6  0  0  0
 79 80  1  6  0  0  0
 80 81  2  0  0  0  0
 80165  1  0  0  0  0
 81 82  1  0  0  0  0
 81 83  1  6  0  0  0
 83 84  1  0  0  0  0
 83 87  2  0  0  0  0
 84 85  1  6  0  0  0
 85 86  2  0  0  0  0
 85166  1  6  0  0  0
 86 87  1  1  0  0  0
 86 88  1  6  0  0  0
 88 89  1  0  0  0  0
 88 90  2  0  0  0  0
 89 91  1  6  0  0  0
 89167  1  1  0  0  0
 91 92  1  0  0  0  0
 91168  1  0  0  0  0
 91169  1  6  0  0  0
 92 93  1  0  0  0  0
 92170  1  0  0  0  0
 92171  1  1  0  0  0
 93 94  1  0  0  0  0
 93172  1  0  0  0  0
 93173  1  6  0  0  0
 94 95  1  1  0  0  0
 94 96  1  6  0  0  0
 95174  1  0  0  0  0
 95175  1  1  0  0  0
 95176  1  0  0  0  0
 96177  1  0  0  0  0
 96178  1  0  0  0  0
 96179  1  6  0  0  0
M  END
>  <Formula> (255)
C55H83N17O21S3

>  <Name> (255)
BLEOMYCIN A

>  <CAS-Nr> (255)
---

>  <Compound classification> (255)
AB-GlPe

>  <Microorganism> (255)
Shigella sonnei

>  <Microorganism type> (255)
1-1196

>  <Microorganism classification> (255)
Bac-

>  <MIC> (255)
0.8

>  <Annotation> (255)
MIC: 0,8-1,6 ppm

>  <Method abbreviation> (255)
ADlT

>  <Ref-Nr> (255)
7240

>  <Marker> (255)
0

>  <Method> (255)
Agar dilution test; Inoculum size: ---; Medium: ---; pH: ---; Incubation-temperature: -- degrees Centigrade; Incubation-time: ---; Solubility enhancer: ---;

>  <Reference> (255)
Umezawa, H., Maeda, K., Okami, Y., Takeuchi, T.: Bleomycin and Process for the Preparation Thereof; US 3,681,491 (1972)

>  <mol_id> (255)
4154

>  <LD50-mou-ip> (255)
>125

>  <MolWeight> (255)
1414.54

>  <Nickname> (255)
Bleomycin A Complex (structure Bleomycin A2)

>  <other Names> (255)
Bleomycin A complex

$$$$

csChmFindW11180110282D

179184  0  0  0  0  0  0  0  0999 V2000
   30.2071   14.4421    6.2698 C   0  0  0  0  0  0  0  0  0  0  0  0
   31.2026   14.6786    4.8220 N   0  0  0  0  0  0  0  0  0  0  0  0
   31.0539   13.5086    3.4834 C   0  0  0  0  0  0  0  0  0  0  0  0
   29.8489   12.0663    3.6063 C   0  0  0  0  0  0  0  0  0  0  0  0
   28.8325   11.9496    5.1413 C   0  0  0  0  0  0  0  0  0  0  0  0
   29.0509   13.1251    6.4694 N   0  0  0  0  0  0  0  0  0  0  0  0
   32.0507   13.7548    1.9841 N   0  0  0  0  0  0  0  0  0  0  0  0
   29.7661   10.7301    2.1302 C   0  0  0  0  0  0  0  0  0  0  0  0
   27.3938   10.6037    5.4081 C   0  0  0  0  0  0  0  0  0  0  0  0
   26.4743   10.1802    3.9116 N   0  0  0  0  0  0  0  0  0  0  0  0
   24.7286    9.3308    3.9769 C   0  0  0  0  0  0  0  0  0  0  0  0
   24.6697    7.7362    2.7156 C   0  0  0  0  0  0  0  0  0  0  0  0
   26.0567    6.5688    3.2125 O   0  0  0  0  0  0  0  0  0  0  0  0
   26.2214    5.0099    2.1699 C   0  0  0  0  0  0  0  0  0  0  0  0
   26.9704   10.0712    6.8701 O   0  0  0  0  0  0  0  0  0  0  0  0
   24.7657    8.3332    0.8200 C   0  0  0  0  0  0  0  0  0  0  0  0
   23.3993    8.6716   -0.3514 N   0  0  0  0  0  0  0  0  0  0  0  0
   24.1192    9.1791   -1.9103 C   0  0  0  0  0  0  0  0  0  0  0  0
   25.8660    9.1958   -1.8443 N   0  0  0  0  0  0  0  0  0  0  0  0
   26.2580    8.6634   -0.1745 C   0  0  0  0  0  0  0  0  0  0  0  0
   24.5493    4.1662    2.2068 O   0  0  0  0  0  0  0  0  0  0  0  0
   24.5069    2.6395    1.1217 C   0  0  0  0  0  0  0  0  0  0  0  0
   25.9097    1.3042    1.6741 C   0  0  0  0  0  0  0  0  0  0  0  0
   27.7303    2.1185    1.9130 C   0  0  0  0  0  0  0  0  0  0  0  0
   27.6057    3.8130    2.9926 C   0  0  0  0  0  0  0  0  0  0  0  0
   29.2420    4.7365    3.0614 O   0  0  0  0  0  0  0  0  0  0  0  0
   30.4743    4.0458    4.2984 C   0  0  0  0  0  0  0  0  0  0  0  0
   29.8711    4.3826    6.0404 O   0  0  0  0  0  0  0  0  0  0  0  0
   29.7215    6.2004    6.4805 C   0  0  0  0  0  0  0  0  0  0  0  0
   31.4669    7.1799    6.2350 C   0  0  0  0  0  0  0  0  0  0  0  0
   32.3335    6.8145    4.4502 C   0  0  0  0  0  0  0  0  0  0  0  0
   32.2837    4.8469    4.0227 C   0  0  0  0  0  0  0  0  0  0  0  0
   22.6493    1.8646    1.2389 C   0  0  0  0  0  0  0  0  0  0  0  0
   22.6913    0.1099    0.6472 O   0  5  0  0  0  0  0  0  0  0  0  0
   25.3734    0.4570    3.2750 O   0  0  0  0  0  0  0  0  0  0  0  0
   28.4549    2.4956    0.2068 O   0  0  0  0  0  0  0  0  0  0  0  0
   33.5243    3.9434    5.1317 O   0  0  0  0  0  0  0  0  0  0  0  0
   29.0258    6.2722    8.3720 C   0  0  0  0  0  0  0  0  0  0  0  0
   28.9423    8.0446    9.0226 O   0  0  0  0  0  0  0  0  0  0  0  0
   31.0796    9.0272    6.3748 O   0  0  0  0  0  0  0  0  0  0  0  0
   34.1376    7.3385    4.4213 O   0  0  0  0  0  0  0  0  0  0  0  0
   34.5675    9.0664    4.2603 C   0  0  0  0  0  0  0  0  0  0  0  0
   33.4936   10.2435    4.2367 O   0  0  0  0  0  0  0  0  0  0  0  0
   36.3041    9.4781    4.0982 N   0  0  0  0  0  0  0  0  0  0  0  0
   30.3168   15.8157    7.7200 C   0  0  0  0  0  0  0  0  0  0  0  0
   32.2211   16.5113    7.9461 C   0  0  0  0  0  0  0  0  0  0  0  0
   32.3800   17.9551    9.3313 C   0  0  0  0  0  0  0  0  0  0  0  0
   29.1491   17.3060    7.3098 N   0  0  0  0  0  0  0  0  0  0  0  0
   31.1380   18.6922   10.0051 O   0  0  0  0  0  0  0  0  0  0  0  0
   34.0657   18.4155    9.7540 N   0  0  0  0  0  0  0  0  0  0  0  0
   27.2744   16.9370    7.6219 C   0  0  0  0  0  0  0  0  0  0  0  0
   26.1166   18.2923    6.6488 C   0  0  0  0  0  0  0  0  0  0  0  0
   24.2611   18.0573    7.1896 N   0  0  0  0  0  0  0  0  0  0  0  0
   26.2362   18.2242    4.6415 C   0  0  0  0  0  0  0  0  0  0  0  0
   25.3503   19.1381    3.6829 O   0  0  0  0  0  0  0  0  0  0  0  0
   27.3997   17.0328    3.9582 N   0  0  0  0  0  0  0  0  0  0  0  0
   23.3502   10.7573    3.5912 C   0  0  0  0  0  0  0  0  0  0  0  0
   21.8111   10.1568    2.8647 N   0  0  0  0  0  0  0  0  0  0  0  0
   20.4393   11.3787    2.2193 C   0  0  0  0  0  0  0  0  0  0  0  0
   18.7266   10.2904    2.1036 C   0  0  0  0  0  0  0  0  0  0  0  0
   17.0334   11.0331    1.2494 C   0  0  0  0  0  0  0  0  0  0  0  0
   15.5607    9.6666    1.5215 C   0  0  0  0  0  0  0  0  0  0  0  0
   13.9855   10.0698    0.7295 N   0  0  0  0  0  0  0  0  0  0  0  0
   12.4772    8.8521    0.7242 C   0  0  0  0  0  0  0  0  0  0  0  0
   10.8385    9.9611    0.3358 C   0  0  0  0  0  0  0  0  0  0  0  0
    9.2669    9.0943    0.5521 N   0  0  0  0  0  0  0  0  0  0  0  0
    7.5662    9.9639    0.2149 C   0  0  0  0  0  0  0  0  0  0  0  0
    6.3128    8.6584   -0.7069 C   0  0  0  0  0  0  0  0  0  0  0  0
    4.5292    9.4626   -1.0694 C   0  0  0  0  0  0  0  0  0  0  0  0
   23.6350   12.3020    3.8850 O   0  0  0  0  0  0  0  0  0  0  0  0
   21.0605   12.2364    0.4889 C   0  0  0  0  0  0  0  0  0  0  0  0
   19.1034    8.6210    1.2924 O   0  0  0  0  0  0  0  0  0  0  0  0
   17.1608   11.4539   -0.7397 C   0  0  0  0  0  0  0  0  0  0  0  0
   15.8059    8.3246    2.3532 O   0  0  0  0  0  0  0  0  0  0  0  0
   12.6591    7.3816   -0.6660 C   0  0  0  0  0  0  0  0  0  0  0  0
   12.9663    8.0755   -2.5367 C   0  0  0  0  0  0  0  0  0  0  0  0
   14.1001    6.2568   -0.1930 O   0  0  0  0  0  0  0  0  0  0  0  0
   10.9688   11.4752   -0.1594 O   0  0  0  0  0  0  0  0  0  0  0  0
    2.6193    8.8262   -0.0978 S   0  0  0  0  0  0  0  0  0  0  0  0
    1.5199   10.4151   -1.3072 C   0  0  0  0  0  0  0  0  0  0  0  0
    2.6804   11.3208   -2.3716 C   0  0  0  0  0  0  0  0  0  0  0  0
    4.4033   10.7573   -2.2078 N   0  0  0  0  0  0  0  0  0  0  0  0
    2.2135   12.7878   -3.5602 C   0  0  0  0  0  0  0  0  0  0  0  0
    0.0990   13.3814   -4.0362 S   0  0  0  0  0  0  0  0  0  0  0  0
    0.8597   15.0290   -5.4024 C   0  0  0  0  0  0  0  0  0  0  0  0
    2.6738   15.0104   -5.4192 C   0  0  0  0  0  0  0  0  0  0  0  0
    3.4249   13.7229   -4.3786 N   0  0  0  0  0  0  0  0  0  0  0  0
    3.7265   16.2830   -6.4658 C   0  0  0  0  0  0  0  0  0  0  0  0
    5.5003   15.9750   -6.3373 N   0  0  0  0  0  0  0  0  0  0  0  0
    3.0952   17.4875   -7.3433 O   0  0  0  0  0  0  0  0  0  0  0  0
    6.7823   17.0759   -7.2859 C   0  0  0  0  0  0  0  0  0  0  0  0
    8.6416   16.7776   -6.5189 C   0  0  0  0  0  0  0  0  0  0  0  0
   10.0243   17.9830   -7.3916 C   0  0  0  0  0  0  0  0  0  0  0  0
   12.2583   17.5534   -6.6205 S   0  3  0  0  0  0  0  0  0  0  0  0
   12.1446   18.4659   -4.4158 C   0  0  0  0  0  0  0  0  0  0  0  0
   13.3824   19.3596   -7.7149 C   0  0  0  0  0  0  0  0  0  0  0  0
   31.9455   12.8830    0.9122 H   0  0  0  0  0  0  0  0  0  0  0  0
   32.9159   14.8383    1.9329 H   0  0  0  0  0  0  0  0  0  0  0  0
   28.8732   11.2240    1.0694 H   0  0  0  0  0  0  0  0  0  0  0  0
   29.3246    9.4123    2.6056 H   0  0  0  0  0  0  0  0  0  0  0  0
   31.0837   10.4756    1.5314 H   0  0  0  0  0  0  0  0  0  0  0  0
   26.8754   10.6930    2.7481 H   0  0  0  0  0  0  0  0  0  0  0  0
   24.4314    8.8402    5.3370 H   0  0  0  0  0  0  0  0  0  0  0  0
   23.3871    7.0401    2.9210 H   0  0  0  0  0  0  0  0  0  0  0  0
   26.5773    5.3772    0.7940 H   0  0  0  0  0  0  0  0  0  0  0  0
   22.0486    8.5462   -0.0813 H   0  0  0  0  0  0  0  0  0  0  0  0
   23.3045    9.5241   -3.0554 H   0  0  0  0  0  0  0  0  0  0  0  0
   27.6271    8.5021    0.2648 H   0  0  0  0  0  0  0  0  0  0  0  0
   24.7582    3.0537   -0.2731 H   0  0  0  0  0  0  0  0  0  0  0  0
   26.0046    0.2296    0.6656 H   0  0  0  0  0  0  0  0  0  0  0  0
   28.6190    1.1261    2.5410 H   0  0  0  0  0  0  0  0  0  0  0  0
   27.1620    3.4961    4.3624 H   0  0  0  0  0  0  0  0  0  0  0  0
   30.5728    2.5876    4.1283 H   0  0  0  0  0  0  0  0  0  0  0  0
   28.6999    6.8088    5.6088 H   0  0  0  0  0  0  0  0  0  0  0  0
   32.3949    6.8219    7.3215 H   0  0  0  0  0  0  0  0  0  0  0  0
   31.6067    7.5190    3.3797 H   0  0  0  0  0  0  0  0  0  0  0  0
   32.7182    4.6134    2.6312 H   0  0  0  0  0  0  0  0  0  0  0  0
   21.6834    2.5960    0.4033 H   0  0  0  0  0  0  0  0  0  0  0  0
   22.1505    1.8219    2.6238 H   0  0  0  0  0  0  0  0  0  0  0  0
   24.2438    0.0000    3.0237 H   0  0  0  0  0  0  0  0  0  0  0  0
   28.1608    1.5389   -0.5333 H   0  0  0  0  0  0  0  0  0  0  0  0
   33.3502    2.7197    4.9910 H   0  0  0  0  0  0  0  0  0  0  0  0
   29.8970    5.5124    9.2841 H   0  0  0  0  0  0  0  0  0  0  0  0
   27.6690    5.7021    8.4415 H   0  0  0  0  0  0  0  0  0  0  0  0
   28.6412    8.8033    8.0772 H   0  0  0  0  0  0  0  0  0  0  0  0
   32.0565    9.7073    6.0310 H   0  0  0  0  0  0  0  0  0  0  0  0
   37.1790    8.4709    4.1122 H   0  0  0  0  0  0  0  0  0  0  0  0
   36.5992   10.7732    3.9769 H   0  0  0  0  0  0  0  0  0  0  0  0
   29.9126   15.2202    9.0098 H   0  0  0  0  0  0  0  0  0  0  0  0
   32.7138   17.1020    6.6875 H   0  0  0  0  0  0  0  0  0  0  0  0
   33.1117   15.3943    8.3141 H   0  0  0  0  0  0  0  0  0  0  0  0
   29.5008   18.3691    8.0636 H   0  0  0  0  0  0  0  0  0  0  0  0
   34.2015   19.3885   10.6577 H   0  0  0  0  0  0  0  0  0  0  0  0
   35.0879   17.7914    9.1635 H   0  0  0  0  0  0  0  0  0  0  0  0
   27.0286   17.0020    9.0746 H   0  0  0  0  0  0  0  0  0  0  0  0
   26.8975   15.5887    7.1690 H   0  0  0  0  0  0  0  0  0  0  0  0
   26.5295   19.6552    7.0428 H   0  0  0  0  0  0  0  0  0  0  0  0
   23.4490   18.8176    6.4274 H   0  0  0  0  0  0  0  0  0  0  0  0
   23.8556   16.7863    6.9953 H   0  0  0  0  0  0  0  0  0  0  0  0
   27.4735   16.9740    2.6271 H   0  0  0  0  0  0  0  0  0  0  0  0
   28.1408   16.2719    4.7689 H   0  0  0  0  0  0  0  0  0  0  0  0
   21.7378    8.8796    2.4785 H   0  0  0  0  0  0  0  0  0  0  0  0
   20.2344   12.4494    3.2183 H   0  0  0  0  0  0  0  0  0  0  0  0
   18.4021    9.9669    3.5130 H   0  0  0  0  0  0  0  0  0  0  0  0
   16.6275   12.2523    1.9783 H   0  0  0  0  0  0  0  0  0  0  0  0
   13.8315   11.2247    0.0752 H   0  0  0  0  0  0  0  0  0  0  0  0
   12.2951    8.2806    2.0724 H   0  0  0  0  0  0  0  0  0  0  0  0
    9.2777    7.8541    1.0473 H   0  0  0  0  0  0  0  0  0  0  0  0
    7.7358   11.1557   -0.6351 H   0  0  0  0  0  0  0  0  0  0  0  0
    6.9970   10.3962    1.5038 H   0  0  0  0  0  0  0  0  0  0  0  0
    6.1606    7.4502    0.1237 H   0  0  0  0  0  0  0  0  0  0  0  0
    6.9008    8.2246   -1.9882 H   0  0  0  0  0  0  0  0  0  0  0  0
   20.3138   13.4704    0.2044 H   0  0  0  0  0  0  0  0  0  0  0  0
   20.9434   11.3126   -0.6488 H   0  0  0  0  0  0  0  0  0  0  0  0
   22.4699   12.6529    0.5615 H   0  0  0  0  0  0  0  0  0  0  0  0
   18.1451    7.8690    1.5810 H   0  0  0  0  0  0  0  0  0  0  0  0
   15.8584   11.8025   -1.3262 H   0  0  0  0  0  0  0  0  0  0  0  0
   17.6878   10.3128   -1.5046 H   0  0  0  0  0  0  0  0  0  0  0  0
   17.9887   12.6287   -1.0218 H   0  0  0  0  0  0  0  0  0  0  0  0
   11.4543    6.5288   -0.6552 H   0  0  0  0  0  0  0  0  0  0  0  0
   13.1106    6.9619   -3.4899 H   0  0  0  0  0  0  0  0  0  0  0  0
   14.1925    8.8863   -2.6156 H   0  0  0  0  0  0  0  0  0  0  0  0
   11.8418    8.9058   -2.9971 H   0  0  0  0  0  0  0  0  0  0  0  0
   14.0932    5.2453   -0.9172 H   0  0  0  0  0  0  0  0  0  0  0  0
    0.0917   10.6449   -1.2041 H   0  0  0  0  0  0  0  0  0  0  0  0
    0.0000   15.9418   -6.1316 H   0  0  0  0  0  0  0  0  0  0  0  0
    5.9096   14.9065   -5.6498 H   0  0  0  0  0  0  0  0  0  0  0  0
    6.4241   18.4989   -7.1418 H   0  0  0  0  0  0  0  0  0  0  0  0
    6.7560   16.7260   -8.7172 H   0  0  0  0  0  0  0  0  0  0  0  0
    9.0143   15.3622   -6.7112 H   0  0  0  0  0  0  0  0  0  0  0  0
    8.5984   17.0326   -5.0664 H   0  0  0  0  0  0  0  0  0  0  0  0
    9.6854   19.3967   -7.1578 H   0  0  0  0  0  0  0  0  0  0  0  0
   10.0353   17.7500   -8.8470 H   0  0  0  0  0  0  0  0  0  0  0  0
   13.5086   18.5619   -3.8735 H   0  0  0  0  0  0  0  0  0  0  0  0
   11.3611   17.5649   -3.5578 H   0  0  0  0  0  0  0  0  0  0  0  0
   11.5272   19.8002   -4.4151 H   0  0  0  0  0  0  0  0  0  0  0  0
   14.7721   19.4147   -7.2362 H   0  0  0  0  0  0  0  0  0  0  0  0
   12.7267   20.6475   -7.4441 H   0  0  0  0  0  0  0  0  0  0  0  0
   13.3849   19.1125   -9.1650 H   0  0  0  0  0  0  0  0  0  0  0  0
  1  2  2  0  0  0  0
  1  6  1  0  0  0  0
  1 45  1  1  0  0  0
  2  3  1  6  0  0  0
  3  4  2  0  0  0  0
  3  7  1  6  0  0  0
  4  5  1  1  0  0  0
  4  8  1  6  0  0  0
  5  6  2  0  0  0  0
  5  9  1  0  0  0  0
  7 97  1  6  0  0  0
  7 98  1  0  0  0  0
  8 99  1  6  0  0  0
  8100  1  0  0  0  0
  8101  1  0  0  0  0
  9 10  1  6  0  0  0
  9 15  2  0  0  0  0
 10 11  1  0  0  0  0
 10102  1  6  0  0  0
 11 12  1  6  0  0  0
 11 57  1  0  0  0  0
 11103  1  1  0  0  0
 12 13  1  0  0  0  0
 12 16  1  6  0  0  0
 12104  1  0  0  0  0
 13 14  1  6  0  0  0
 14 21  1  0  0  0  0
 14 25  1  0  0  0  0
 14105  1  6  0  0  0
 16 17  1  6  0  0  0
 16 20  2  0  0  0  0
 17 18  1  6  0  0  0
 17106  1  0  0  0  0
 18 19  2  0  0  0  0
 18107  1  6  0  0  0
 19 20  1  1  0  0  0
 20108  1  0  0  0  0
 21 22  1  6  0  0  0
 22 23  1  0  0  0  0
 22 33  1  0  0  0  0
 22109  1  6  0  0  0
 23 24  1  0  0  0  0
 23 35  1  1  0  0  0
 23110  1  6  0  0  0
 24 25  1  1  0  0  0
 24 36  1  6  0  0  0
 24111  1  0  0  0  0
 25 26  1  0  0  0  0
 25112  1  1  0  0  0
 26 27  1  1  0  0  0
 27 28  1  1  0  0  0
 27 32  1  0  0  0  0
 27113  1  0  0  0  0
 28 29  1  0  0  0  0
 29 30  1  0  0  0  0
 29 38  1  1  0  0  0
 29114  1  6  0  0  0
 30 31  1  6  0  0  0
 30 40  1  0  0  0  0
 30115  1  1  0  0  0
 31 32  1  0  0  0  0
 31 41  1  0  0  0  0
 31116  1  6  0  0  0
 32 37  1  1  0  0  0
 32117  1  6  0  0  0
 33 34  1  0  0  0  0
 33118  1  6  0  0  0
 33119  1  1  0  0  0
 35120  1  0  0  0  0
 36121  1  6  0  0  0
 37122  1  0  0  0  0
 38 39  1  0  0  0  0
 38123  1  1  0  0  0
 38124  1  0  0  0  0
 39125  1  6  0  0  0
 40126  1  0  0  0  0
 41 42  1  0  0  0  0
 42 43  2  0  0  0  0
 42 44  1  0  0  0  0
 44127  1  0  0  0  0
 44128  1  0  0  0  0
 45 46  1  0  0  0  0
 45 48  1  0  0  0  0
 45129  1  1  0  0  0
 46 47  1  1  0  0  0
 46130  1  6  0  0  0
 46131  1  0  0  0  0
 47 49  2  0  0  0  0
 47 50  1  0  0  0  0
 48 51  1  0  0  0  0
 48132  1  1  0  0  0
 50133  1  1  0  0  0
 50134  1  0  0  0  0
 51 52  1  6  0  0  0
 51135  1  1  0  0  0
 51136  1  0  0  0  0
 52 53  1  0  0  0  0
 52 54  1  6  0  0  0
 52137  1  0  0  0  0
 53138  1  6  0  0  0
 53139  1  0  0  0  0
 54 55  2  0  0  0  0
 54 56  1  0  0  0  0
 56140  1  6  0  0  0
 56141  1  1  0  0  0
 57 58  1  0  0  0  0
 57 70  2  0  0  0  0
 58 59  1  0  0  0  0
 58142  1  0  0  0  0
 59 60  1  0  0  0  0
 59 71  1  6  0  0  0
 59143  1  1  0  0  0
 60 61  1  0  0  0  0
 60 72  1  0  0  0  0
 60144  1  1  0  0  0
 61 62  1  0  0  0  0
 61 73  1  6  0  0  0
 61145  1  1  0  0  0
 62 63  1  0  0  0  0
 62 74  2  0  0  0  0
 63 64  1  0  0  0  0
 63146  1  6  0  0  0
 64 65  1  0  0  0  0
 64 75  1  6  0  0  0
 64147  1  1  0  0  0
 65 66  1  0  0  0  0
 65 78  2  0  0  0  0
 66 67  1  0  0  0  0
 66148  1  0  0  0  0
 67 68  1  6  0  0  0
 67149  1  6  0  0  0
 67150  1  1  0  0  0
 68 69  1  0  0  0  0
 68151  1  1  0  0  0
 68152  1  6  0  0  0
 69 79  1  0  0  0  0
 69 82  2  0  0  0  0
 71153  1  0  0  0  0
 71154  1  6  0  0  0
 71155  1  0  0  0  0
 72156  1  0  0  0  0
 73157  1  0  0  0  0
 73158  1  6  0  0  0
 73159  1  0  0  0  0
 75 76  1  6  0  0  0
 75 77  1  0  0  0  0
 75160  1  0  0  0  0
 76161  1  6  0  0  0
 76162  1  0  0  0  0
 76163  1  0  0  0  0
 77164  1  6  0  0  0
 79 80  1  6  0  0  0
 80 81  2  0  0  0  0
 80165  1  0  0  0  0
 81 82  1  0  0  0  0
 81 83  1  6  0  0  0
 83 84  1  0  0  0  0
 83 87  2  0  0  0  0
 84 85  1  6  0  0  0
 85 86  2  0  0  0  0
 85166  1  6  0  0  0
 86 87  1  1  0  0  0
 86 88  1  6  0  0  0
 88 89  1  0  0  0  0
 88 90  2  0  0  0  0
 89 91  1  6  0  0  0
 89167  1  1  0  0  0
 91 92  1  0  0  0  0
 91168  1  0  0  0  0
 91169  1  6  0  0  0
 92 93  1  0  0  0  0
 92170  1  0  0  0  0
 92171  1  1  0  0  0
 93 94  1  0  0  0  0
 93172  1  0  0  0  0
 93173  1  6  0  0  0
 94 95  1  1  0  0  0
 94 96  1  6  0  0  0
 95174  1  0  0  0  0
 95175  1  1  0  0  0
 95176  1  0  0  0  0
 96177  1  0  0  0  0
 96178  1  0  0  0  0
 96179  1  6  0  0  0
M  END
>  <Formula> (256)
C55H83N17O21S3

>  <Name> (256)
BLEOMYCIN A

>  <CAS-Nr> (256)
---

>  <Compound classification> (256)
AB-GlPe

>  <Microorganism> (256)
Xanthomonas oryzae pv oryzae

>  <Publication strain name> (256)
Xanthomonas oryzae

>  <Microorganism classification> (256)
Bac-

>  <MIC> (256)
0.4

>  <Method abbreviation> (256)
ADlT

>  <Ref-Nr> (256)
7240

>  <Marker> (256)
0

>  <Method> (256)
Agar dilution test; Inoculum size: ---; Medium: ---; pH: ---; Incubation-temperature: -- degrees Centigrade; Incubation-time: ---; Solubility enhancer: ---;

>  <Reference> (256)
Umezawa, H., Maeda, K., Okami, Y., Takeuchi, T.: Bleomycin and Process for the Preparation Thereof; US 3,681,491 (1972)

>  <mol_id> (256)
4154

>  <LD50-mou-ip> (256)
>125

>  <MolWeight> (256)
1414.54

>  <Nickname> (256)
Bleomycin A Complex (structure Bleomycin A2)

>  <other Names> (256)
Bleomycin A complex

$$$$

csChmFindW11180110282D

179184  0  0  0  0  0  0  0  0999 V2000
   30.2071   14.4421    6.2698 C   0  0  0  0  0  0  0  0  0  0  0  0
   31.2026   14.6786    4.8220 N   0  0  0  0  0  0  0  0  0  0  0  0
   31.0539   13.5086    3.4834 C   0  0  0  0  0  0  0  0  0  0  0  0
   29.8489   12.0663    3.6063 C   0  0  0  0  0  0  0  0  0  0  0  0
   28.8325   11.9496    5.1413 C   0  0  0  0  0  0  0  0  0  0  0  0
   29.0509   13.1251    6.4694 N   0  0  0  0  0  0  0  0  0  0  0  0
   32.0507   13.7548    1.9841 N   0  0  0  0  0  0  0  0  0  0  0  0
   29.7661   10.7301    2.1302 C   0  0  0  0  0  0  0  0  0  0  0  0
   27.3938   10.6037    5.4081 C   0  0  0  0  0  0  0  0  0  0  0  0
   26.4743   10.1802    3.9116 N   0  0  0  0  0  0  0  0  0  0  0  0
   24.7286    9.3308    3.9769 C   0  0  0  0  0  0  0  0  0  0  0  0
   24.6697    7.7362    2.7156 C   0  0  0  0  0  0  0  0  0  0  0  0
   26.0567    6.5688    3.2125 O   0  0  0  0  0  0  0  0  0  0  0  0
   26.2214    5.0099    2.1699 C   0  0  0  0  0  0  0  0  0  0  0  0
   26.9704   10.0712    6.8701 O   0  0  0  0  0  0  0  0  0  0  0  0
   24.7657    8.3332    0.8200 C   0  0  0  0  0  0  0  0  0  0  0  0
   23.3993    8.6716   -0.3514 N   0  0  0  0  0  0  0  0  0  0  0  0
   24.1192    9.1791   -1.9103 C   0  0  0  0  0  0  0  0  0  0  0  0
   25.8660    9.1958   -1.8443 N   0  0  0  0  0  0  0  0  0  0  0  0
   26.2580    8.6634   -0.1745 C   0  0  0  0  0  0  0  0  0  0  0  0
   24.5493    4.1662    2.2068 O   0  0  0  0  0  0  0  0  0  0  0  0
   24.5069    2.6395    1.1217 C   0  0  0  0  0  0  0  0  0  0  0  0
   25.9097    1.3042    1.6741 C   0  0  0  0  0  0  0  0  0  0  0  0
   27.7303    2.1185    1.9130 C   0  0  0  0  0  0  0  0  0  0  0  0
   27.6057    3.8130    2.9926 C   0  0  0  0  0  0  0  0  0  0  0  0
   29.2420    4.7365    3.0614 O   0  0  0  0  0  0  0  0  0  0  0  0
   30.4743    4.0458    4.2984 C   0  0  0  0  0  0  0  0  0  0  0  0
   29.8711    4.3826    6.0404 O   0  0  0  0  0  0  0  0  0  0  0  0
   29.7215    6.2004    6.4805 C   0  0  0  0  0  0  0  0  0  0  0  0
   31.4669    7.1799    6.2350 C   0  0  0  0  0  0  0  0  0  0  0  0
   32.3335    6.8145    4.4502 C   0  0  0  0  0  0  0  0  0  0  0  0
   32.2837    4.8469    4.0227 C   0  0  0  0  0  0  0  0  0  0  0  0
   22.6493    1.8646    1.2389 C   0  0  0  0  0  0  0  0  0  0  0  0
   22.6913    0.1099    0.6472 O   0  5  0  0  0  0  0  0  0  0  0  0
   25.3734    0.4570    3.2750 O   0  0  0  0  0  0  0  0  0  0  0  0
   28.4549    2.4956    0.2068 O   0  0  0  0  0  0  0  0  0  0  0  0
   33.5243    3.9434    5.1317 O   0  0  0  0  0  0  0  0  0  0  0  0
   29.0258    6.2722    8.3720 C   0  0  0  0  0  0  0  0  0  0  0  0
   28.9423    8.0446    9.0226 O   0  0  0  0  0  0  0  0  0  0  0  0
   31.0796    9.0272    6.3748 O   0  0  0  0  0  0  0  0  0  0  0  0
   34.1376    7.3385    4.4213 O   0  0  0  0  0  0  0  0  0  0  0  0
   34.5675    9.0664    4.2603 C   0  0  0  0  0  0  0  0  0  0  0  0
   33.4936   10.2435    4.2367 O   0  0  0  0  0  0  0  0  0  0  0  0
   36.3041    9.4781    4.0982 N   0  0  0  0  0  0  0  0  0  0  0  0
   30.3168   15.8157    7.7200 C   0  0  0  0  0  0  0  0  0  0  0  0
   32.2211   16.5113    7.9461 C   0  0  0  0  0  0  0  0  0  0  0  0
   32.3800   17.9551    9.3313 C   0  0  0  0  0  0  0  0  0  0  0  0
   29.1491   17.3060    7.3098 N   0  0  0  0  0  0  0  0  0  0  0  0
   31.1380   18.6922   10.0051 O   0  0  0  0  0  0  0  0  0  0  0  0
   34.0657   18.4155    9.7540 N   0  0  0  0  0  0  0  0  0  0  0  0
   27.2744   16.9370    7.6219 C   0  0  0  0  0  0  0  0  0  0  0  0
   26.1166   18.2923    6.6488 C   0  0  0  0  0  0  0  0  0  0  0  0
   24.2611   18.0573    7.1896 N   0  0  0  0  0  0  0  0  0  0  0  0
   26.2362   18.2242    4.6415 C   0  0  0  0  0  0  0  0  0  0  0  0
   25.3503   19.1381    3.6829 O   0  0  0  0  0  0  0  0  0  0  0  0
   27.3997   17.0328    3.9582 N   0  0  0  0  0  0  0  0  0  0  0  0
   23.3502   10.7573    3.5912 C   0  0  0  0  0  0  0  0  0  0  0  0
   21.8111   10.1568    2.8647 N   0  0  0  0  0  0  0  0  0  0  0  0
   20.4393   11.3787    2.2193 C   0  0  0  0  0  0  0  0  0  0  0  0
   18.7266   10.2904    2.1036 C   0  0  0  0  0  0  0  0  0  0  0  0
   17.0334   11.0331    1.2494 C   0  0  0  0  0  0  0  0  0  0  0  0
   15.5607    9.6666    1.5215 C   0  0  0  0  0  0  0  0  0  0  0  0
   13.9855   10.0698    0.7295 N   0  0  0  0  0  0  0  0  0  0  0  0
   12.4772    8.8521    0.7242 C   0  0  0  0  0  0  0  0  0  0  0  0
   10.8385    9.9611    0.3358 C   0  0  0  0  0  0  0  0  0  0  0  0
    9.2669    9.0943    0.5521 N   0  0  0  0  0  0  0  0  0  0  0  0
    7.5662    9.9639    0.2149 C   0  0  0  0  0  0  0  0  0  0  0  0
    6.3128    8.6584   -0.7069 C   0  0  0  0  0  0  0  0  0  0  0  0
    4.5292    9.4626   -1.0694 C   0  0  0  0  0  0  0  0  0  0  0  0
   23.6350   12.3020    3.8850 O   0  0  0  0  0  0  0  0  0  0  0  0
   21.0605   12.2364    0.4889 C   0  0  0  0  0  0  0  0  0  0  0  0
   19.1034    8.6210    1.2924 O   0  0  0  0  0  0  0  0  0  0  0  0
   17.1608   11.4539   -0.7397 C   0  0  0  0  0  0  0  0  0  0  0  0
   15.8059    8.3246    2.3532 O   0  0  0  0  0  0  0  0  0  0  0  0
   12.6591    7.3816   -0.6660 C   0  0  0  0  0  0  0  0  0  0  0  0
   12.9663    8.0755   -2.5367 C   0  0  0  0  0  0  0  0  0  0  0  0
   14.1001    6.2568   -0.1930 O   0  0  0  0  0  0  0  0  0  0  0  0
   10.9688   11.4752   -0.1594 O   0  0  0  0  0  0  0  0  0  0  0  0
    2.6193    8.8262   -0.0978 S   0  0  0  0  0  0  0  0  0  0  0  0
    1.5199   10.4151   -1.3072 C   0  0  0  0  0  0  0  0  0  0  0  0
    2.6804   11.3208   -2.3716 C   0  0  0  0  0  0  0  0  0  0  0  0
    4.4033   10.7573   -2.2078 N   0  0  0  0  0  0  0  0  0  0  0  0
    2.2135   12.7878   -3.5602 C   0  0  0  0  0  0  0  0  0  0  0  0
    0.0990   13.3814   -4.0362 S   0  0  0  0  0  0  0  0  0  0  0  0
    0.8597   15.0290   -5.4024 C   0  0  0  0  0  0  0  0  0  0  0  0
    2.6738   15.0104   -5.4192 C   0  0  0  0  0  0  0  0  0  0  0  0
    3.4249   13.7229   -4.3786 N   0  0  0  0  0  0  0  0  0  0  0  0
    3.7265   16.2830   -6.4658 C   0  0  0  0  0  0  0  0  0  0  0  0
    5.5003   15.9750   -6.3373 N   0  0  0  0  0  0  0  0  0  0  0  0
    3.0952   17.4875   -7.3433 O   0  0  0  0  0  0  0  0  0  0  0  0
    6.7823   17.0759   -7.2859 C   0  0  0  0  0  0  0  0  0  0  0  0
    8.6416   16.7776   -6.5189 C   0  0  0  0  0  0  0  0  0  0  0  0
   10.0243   17.9830   -7.3916 C   0  0  0  0  0  0  0  0  0  0  0  0
   12.2583   17.5534   -6.6205 S   0  3  0  0  0  0  0  0  0  0  0  0
   12.1446   18.4659   -4.4158 C   0  0  0  0  0  0  0  0  0  0  0  0
   13.3824   19.3596   -7.7149 C   0  0  0  0  0  0  0  0  0  0  0  0
   31.9455   12.8830    0.9122 H   0  0  0  0  0  0  0  0  0  0  0  0
   32.9159   14.8383    1.9329 H   0  0  0  0  0  0  0  0  0  0  0  0
   28.8732   11.2240    1.0694 H   0  0  0  0  0  0  0  0  0  0  0  0
   29.3246    9.4123    2.6056 H   0  0  0  0  0  0  0  0  0  0  0  0
   31.0837   10.4756    1.5314 H   0  0  0  0  0  0  0  0  0  0  0  0
   26.8754   10.6930    2.7481 H   0  0  0  0  0  0  0  0  0  0  0  0
   24.4314    8.8402    5.3370 H   0  0  0  0  0  0  0  0  0  0  0  0
   23.3871    7.0401    2.9210 H   0  0  0  0  0  0  0  0  0  0  0  0
   26.5773    5.3772    0.7940 H   0  0  0  0  0  0  0  0  0  0  0  0
   22.0486    8.5462   -0.0813 H   0  0  0  0  0  0  0  0  0  0  0  0
   23.3045    9.5241   -3.0554 H   0  0  0  0  0  0  0  0  0  0  0  0
   27.6271    8.5021    0.2648 H   0  0  0  0  0  0  0  0  0  0  0  0
   24.7582    3.0537   -0.2731 H   0  0  0  0  0  0  0  0  0  0  0  0
   26.0046    0.2296    0.6656 H   0  0  0  0  0  0  0  0  0  0  0  0
   28.6190    1.1261    2.5410 H   0  0  0  0  0  0  0  0  0  0  0  0
   27.1620    3.4961    4.3624 H   0  0  0  0  0  0  0  0  0  0  0  0
   30.5728    2.5876    4.1283 H   0  0  0  0  0  0  0  0  0  0  0  0
   28.6999    6.8088    5.6088 H   0  0  0  0  0  0  0  0  0  0  0  0
   32.3949    6.8219    7.3215 H   0  0  0  0  0  0  0  0  0  0  0  0
   31.6067    7.5190    3.3797 H   0  0  0  0  0  0  0  0  0  0  0  0
   32.7182    4.6134    2.6312 H   0  0  0  0  0  0  0  0  0  0  0  0
   21.6834    2.5960    0.4033 H   0  0  0  0  0  0  0  0  0  0  0  0
   22.1505    1.8219    2.6238 H   0  0  0  0  0  0  0  0  0  0  0  0
   24.2438    0.0000    3.0237 H   0  0  0  0  0  0  0  0  0  0  0  0
   28.1608    1.5389   -0.5333 H   0  0  0  0  0  0  0  0  0  0  0  0
   33.3502    2.7197    4.9910 H   0  0  0  0  0  0  0  0  0  0  0  0
   29.8970    5.5124    9.2841 H   0  0  0  0  0  0  0  0  0  0  0  0
   27.6690    5.7021    8.4415 H   0  0  0  0  0  0  0  0  0  0  0  0
   28.6412    8.8033    8.0772 H   0  0  0  0  0  0  0  0  0  0  0  0
   32.0565    9.7073    6.0310 H   0  0  0  0  0  0  0  0  0  0  0  0
   37.1790    8.4709    4.1122 H   0  0  0  0  0  0  0  0  0  0  0  0
   36.5992   10.7732    3.9769 H   0  0  0  0  0  0  0  0  0  0  0  0
   29.9126   15.2202    9.0098 H   0  0  0  0  0  0  0  0  0  0  0  0
   32.7138   17.1020    6.6875 H   0  0  0  0  0  0  0  0  0  0  0  0
   33.1117   15.3943    8.3141 H   0  0  0  0  0  0  0  0  0  0  0  0
   29.5008   18.3691    8.0636 H   0  0  0  0  0  0  0  0  0  0  0  0
   34.2015   19.3885   10.6577 H   0  0  0  0  0  0  0  0  0  0  0  0
   35.0879   17.7914    9.1635 H   0  0  0  0  0  0  0  0  0  0  0  0
   27.0286   17.0020    9.0746 H   0  0  0  0  0  0  0  0  0  0  0  0
   26.8975   15.5887    7.1690 H   0  0  0  0  0  0  0  0  0  0  0  0
   26.5295   19.6552    7.0428 H   0  0  0  0  0  0  0  0  0  0  0  0
   23.4490   18.8176    6.4274 H   0  0  0  0  0  0  0  0  0  0  0  0
   23.8556   16.7863    6.9953 H   0  0  0  0  0  0  0  0  0  0  0  0
   27.4735   16.9740    2.6271 H   0  0  0  0  0  0  0  0  0  0  0  0
   28.1408   16.2719    4.7689 H   0  0  0  0  0  0  0  0  0  0  0  0
   21.7378    8.8796    2.4785 H   0  0  0  0  0  0  0  0  0  0  0  0
   20.2344   12.4494    3.2183 H   0  0  0  0  0  0  0  0  0  0  0  0
   18.4021    9.9669    3.5130 H   0  0  0  0  0  0  0  0  0  0  0  0
   16.6275   12.2523    1.9783 H   0  0  0  0  0  0  0  0  0  0  0  0
   13.8315   11.2247    0.0752 H   0  0  0  0  0  0  0  0  0  0  0  0
   12.2951    8.2806    2.0724 H   0  0  0  0  0  0  0  0  0  0  0  0
    9.2777    7.8541    1.0473 H   0  0  0  0  0  0  0  0  0  0  0  0
    7.7358   11.1557   -0.6351 H   0  0  0  0  0  0  0  0  0  0  0  0
    6.9970   10.3962    1.5038 H   0  0  0  0  0  0  0  0  0  0  0  0
    6.1606    7.4502    0.1237 H   0  0  0  0  0  0  0  0  0  0  0  0
    6.9008    8.2246   -1.9882 H   0  0  0  0  0  0  0  0  0  0  0  0
   20.3138   13.4704    0.2044 H   0  0  0  0  0  0  0  0  0  0  0  0
   20.9434   11.3126   -0.6488 H   0  0  0  0  0  0  0  0  0  0  0  0
   22.4699   12.6529    0.5615 H   0  0  0  0  0  0  0  0  0  0  0  0
   18.1451    7.8690    1.5810 H   0  0  0  0  0  0  0  0  0  0  0  0
   15.8584   11.8025   -1.3262 H   0  0  0  0  0  0  0  0  0  0  0  0
   17.6878   10.3128   -1.5046 H   0  0  0  0  0  0  0  0  0  0  0  0
   17.9887   12.6287   -1.0218 H   0  0  0  0  0  0  0  0  0  0  0  0
   11.4543    6.5288   -0.6552 H   0  0  0  0  0  0  0  0  0  0  0  0
   13.1106    6.9619   -3.4899 H   0  0  0  0  0  0  0  0  0  0  0  0
   14.1925    8.8863   -2.6156 H   0  0  0  0  0  0  0  0  0  0  0  0
   11.8418    8.9058   -2.9971 H   0  0  0  0  0  0  0  0  0  0  0  0
   14.0932    5.2453   -0.9172 H   0  0  0  0  0  0  0  0  0  0  0  0
    0.0917   10.6449   -1.2041 H   0  0  0  0  0  0  0  0  0  0  0  0
    0.0000   15.9418   -6.1316 H   0  0  0  0  0  0  0  0  0  0  0  0
    5.9096   14.9065   -5.6498 H   0  0  0  0  0  0  0  0  0  0  0  0
    6.4241   18.4989   -7.1418 H   0  0  0  0  0  0  0  0  0  0  0  0
    6.7560   16.7260   -8.7172 H   0  0  0  0  0  0  0  0  0  0  0  0
    9.0143   15.3622   -6.7112 H   0  0  0  0  0  0  0  0  0  0  0  0
    8.5984   17.0326   -5.0664 H   0  0  0  0  0  0  0  0  0  0  0  0
    9.6854   19.3967   -7.1578 H   0  0  0  0  0  0  0  0  0  0  0  0
   10.0353   17.7500   -8.8470 H   0  0  0  0  0  0  0  0  0  0  0  0
   13.5086   18.5619   -3.8735 H   0  0  0  0  0  0  0  0  0  0  0  0
   11.3611   17.5649   -3.5578 H   0  0  0  0  0  0  0  0  0  0  0  0
   11.5272   19.8002   -4.4151 H   0  0  0  0  0  0  0  0  0  0  0  0
   14.7721   19.4147   -7.2362 H   0  0  0  0  0  0  0  0  0  0  0  0
   12.7267   20.6475   -7.4441 H   0  0  0  0  0  0  0  0  0  0  0  0
   13.3849   19.1125   -9.1650 H   0  0  0  0  0  0  0  0  0  0  0  0
  1  2  2  0  0  0  0
  1  6  1  0  0  0  0
  1 45  1  1  0  0  0
  2  3  1  6  0  0  0
  3  4  2  0  0  0  0
  3  7  1  6  0  0  0
  4  5  1  1  0  0  0
  4  8  1  6  0  0  0
  5  6  2  0  0  0  0
  5  9  1  0  0  0  0
  7 97  1  6  0  0  0
  7 98  1  0  0  0  0
  8 99  1  6  0  0  0
  8100  1  0  0  0  0
  8101  1  0  0  0  0
  9 10  1  6  0  0  0
  9 15  2  0  0  0  0
 10 11  1  0  0  0  0
 10102  1  6  0  0  0
 11 12  1  6  0  0  0
 11 57  1  0  0  0  0
 11103  1  1  0  0  0
 12 13  1  0  0  0  0
 12 16  1  6  0  0  0
 12104  1  0  0  0  0
 13 14  1  6  0  0  0
 14 21  1  0  0  0  0
 14 25  1  0  0  0  0
 14105  1  6  0  0  0
 16 17  1  6  0  0  0
 16 20  2  0  0  0  0
 17 18  1  6  0  0  0
 17106  1  0  0  0  0
 18 19  2  0  0  0  0
 18107  1  6  0  0  0
 19 20  1  1  0  0  0
 20108  1  0  0  0  0
 21 22  1  6  0  0  0
 22 23  1  0  0  0  0
 22 33  1  0  0  0  0
 22109  1  6  0  0  0
 23 24  1  0  0  0  0
 23 35  1  1  0  0  0
 23110  1  6  0  0  0
 24 25  1  1  0  0  0
 24 36  1  6  0  0  0
 24111  1  0  0  0  0
 25 26  1  0  0  0  0
 25112  1  1  0  0  0
 26 27  1  1  0  0  0
 27 28  1  1  0  0  0
 27 32  1  0  0  0  0
 27113  1  0  0  0  0
 28 29  1  0  0  0  0
 29 30  1  0  0  0  0
 29 38  1  1  0  0  0
 29114  1  6  0  0  0
 30 31  1  6  0  0  0
 30 40  1  0  0  0  0
 30115  1  1  0  0  0
 31 32  1  0  0  0  0
 31 41  1  0  0  0  0
 31116  1  6  0  0  0
 32 37  1  1  0  0  0
 32117  1  6  0  0  0
 33 34  1  0  0  0  0
 33118  1  6  0  0  0
 33119  1  1  0  0  0
 35120  1  0  0  0  0
 36121  1  6  0  0  0
 37122  1  0  0  0  0
 38 39  1  0  0  0  0
 38123  1  1  0  0  0
 38124  1  0  0  0  0
 39125  1  6  0  0  0
 40126  1  0  0  0  0
 41 42  1  0  0  0  0
 42 43  2  0  0  0  0
 42 44  1  0  0  0  0
 44127  1  0  0  0  0
 44128  1  0  0  0  0
 45 46  1  0  0  0  0
 45 48  1  0  0  0  0
 45129  1  1  0  0  0
 46 47  1  1  0  0  0
 46130  1  6  0  0  0
 46131  1  0  0  0  0
 47 49  2  0  0  0  0
 47 50  1  0  0  0  0
 48 51  1  0  0  0  0
 48132  1  1  0  0  0
 50133  1  1  0  0  0
 50134  1  0  0  0  0
 51 52  1  6  0  0  0
 51135  1  1  0  0  0
 51136  1  0  0  0  0
 52 53  1  0  0  0  0
 52 54  1  6  0  0  0
 52137  1  0  0  0  0
 53138  1  6  0  0  0
 53139  1  0  0  0  0
 54 55  2  0  0  0  0
 54 56  1  0  0  0  0
 56140  1  6  0  0  0
 56141  1  1  0  0  0
 57 58  1  0  0  0  0
 57 70  2  0  0  0  0
 58 59  1  0  0  0  0
 58142  1  0  0  0  0
 59 60  1  0  0  0  0
 59 71  1  6  0  0  0
 59143  1  1  0  0  0
 60 61  1  0  0  0  0
 60 72  1  0  0  0  0
 60144  1  1  0  0  0
 61 62  1  0  0  0  0
 61 73  1  6  0  0  0
 61145  1  1  0  0  0
 62 63  1  0  0  0  0
 62 74  2  0  0  0  0
 63 64  1  0  0  0  0
 63146  1  6  0  0  0
 64 65  1  0  0  0  0
 64 75  1  6  0  0  0
 64147  1  1  0  0  0
 65 66  1  0  0  0  0
 65 78  2  0  0  0  0
 66 67  1  0  0  0  0
 66148  1  0  0  0  0
 67 68  1  6  0  0  0
 67149  1  6  0  0  0
 67150  1  1  0  0  0
 68 69  1  0  0  0  0
 68151  1  1  0  0  0
 68152  1  6  0  0  0
 69 79  1  0  0  0  0
 69 82  2  0  0  0  0
 71153  1  0  0  0  0
 71154  1  6  0  0  0
 71155  1  0  0  0  0
 72156  1  0  0  0  0
 73157  1  0  0  0  0
 73158  1  6  0  0  0
 73159  1  0  0  0  0
 75 76  1  6  0  0  0
 75 77  1  0  0  0  0
 75160  1  0  0  0  0
 76161  1  6  0  0  0
 76162  1  0  0  0  0
 76163  1  0  0  0  0
 77164  1  6  0  0  0
 79 80  1  6  0  0  0
 80 81  2  0  0  0  0
 80165  1  0  0  0  0
 81 82  1  0  0  0  0
 81 83  1  6  0  0  0
 83 84  1  0  0  0  0
 83 87  2  0  0  0  0
 84 85  1  6  0  0  0
 85 86  2  0  0  0  0
 85166  1  6  0  0  0
 86 87  1  1  0  0  0
 86 88  1  6  0  0  0
 88 89  1  0  0  0  0
 88 90  2  0  0  0  0
 89 91  1  6  0  0  0
 89167  1  1  0  0  0
 91 92  1  0  0  0  0
 91168  1  0  0  0  0
 91169  1  6  0  0  0
 92 93  1  0  0  0  0
 92170  1  0  0  0  0
 92171  1  1  0  0  0
 93 94  1  0  0  0  0
 93172  1  0  0  0  0
 93173  1  6  0  0  0
 94 95  1  1  0  0  0
 94 96  1  6  0  0  0
 95174  1  0  0  0  0
 95175  1  1  0  0  0
 95176  1  0  0  0  0
 96177  1  0  0  0  0
 96178  1  0  0  0  0
 96179  1  6  0  0  0
M  END
>  <Formula> (257)
C55H83N17O21S3

>  <Name> (257)
BLEOMYCIN A

>  <CAS-Nr> (257)
---

>  <Compound classification> (257)
AB-GlPe

>  <Microorganism> (257)
Aspergillus niger

>  <Microorganism classification> (257)
fungi

>  <MIC> (257)
100

>  <Method abbreviation> (257)
ADlT

>  <Ref-Nr> (257)
7240

>  <Marker> (257)
0

>  <Method> (257)
Agar dilution test; Inoculum size: ---; Medium: ---; pH: ---; Incubation-temperature: -- degrees Centigrade; Incubation-time: ---; Solubility enhancer: ---;

>  <Reference> (257)
Umezawa, H., Maeda, K., Okami, Y., Takeuchi, T.: Bleomycin and Process for the Preparation Thereof; US 3,681,491 (1972)

>  <mol_id> (257)
4154

>  <LD50-mou-ip> (257)
>125

>  <MolWeight> (257)
1414.54

>  <Nickname> (257)
Bleomycin A Complex (structure Bleomycin A2)

>  <other Names> (257)
Bleomycin A complex

$$$$

csChmFindW11180110282D

179184  0  0  0  0  0  0  0  0999 V2000
   30.2071   14.4421    6.2698 C   0  0  0  0  0  0  0  0  0  0  0  0
   31.2026   14.6786    4.8220 N   0  0  0  0  0  0  0  0  0  0  0  0
   31.0539   13.5086    3.4834 C   0  0  0  0  0  0  0  0  0  0  0  0
   29.8489   12.0663    3.6063 C   0  0  0  0  0  0  0  0  0  0  0  0
   28.8325   11.9496    5.1413 C   0  0  0  0  0  0  0  0  0  0  0  0
   29.0509   13.1251    6.4694 N   0  0  0  0  0  0  0  0  0  0  0  0
   32.0507   13.7548    1.9841 N   0  0  0  0  0  0  0  0  0  0  0  0
   29.7661   10.7301    2.1302 C   0  0  0  0  0  0  0  0  0  0  0  0
   27.3938   10.6037    5.4081 C   0  0  0  0  0  0  0  0  0  0  0  0
   26.4743   10.1802    3.9116 N   0  0  0  0  0  0  0  0  0  0  0  0
   24.7286    9.3308    3.9769 C   0  0  0  0  0  0  0  0  0  0  0  0
   24.6697    7.7362    2.7156 C   0  0  0  0  0  0  0  0  0  0  0  0
   26.0567    6.5688    3.2125 O   0  0  0  0  0  0  0  0  0  0  0  0
   26.2214    5.0099    2.1699 C   0  0  0  0  0  0  0  0  0  0  0  0
   26.9704   10.0712    6.8701 O   0  0  0  0  0  0  0  0  0  0  0  0
   24.7657    8.3332    0.8200 C   0  0  0  0  0  0  0  0  0  0  0  0
   23.3993    8.6716   -0.3514 N   0  0  0  0  0  0  0  0  0  0  0  0
   24.1192    9.1791   -1.9103 C   0  0  0  0  0  0  0  0  0  0  0  0
   25.8660    9.1958   -1.8443 N   0  0  0  0  0  0  0  0  0  0  0  0
   26.2580    8.6634   -0.1745 C   0  0  0  0  0  0  0  0  0  0  0  0
   24.5493    4.1662    2.2068 O   0  0  0  0  0  0  0  0  0  0  0  0
   24.5069    2.6395    1.1217 C   0  0  0  0  0  0  0  0  0  0  0  0
   25.9097    1.3042    1.6741 C   0  0  0  0  0  0  0  0  0  0  0  0
   27.7303    2.1185    1.9130 C   0  0  0  0  0  0  0  0  0  0  0  0
   27.6057    3.8130    2.9926 C   0  0  0  0  0  0  0  0  0  0  0  0
   29.2420    4.7365    3.0614 O   0  0  0  0  0  0  0  0  0  0  0  0
   30.4743    4.0458    4.2984 C   0  0  0  0  0  0  0  0  0  0  0  0
   29.8711    4.3826    6.0404 O   0  0  0  0  0  0  0  0  0  0  0  0
   29.7215    6.2004    6.4805 C   0  0  0  0  0  0  0  0  0  0  0  0
   31.4669    7.1799    6.2350 C   0  0  0  0  0  0  0  0  0  0  0  0
   32.3335    6.8145    4.4502 C   0  0  0  0  0  0  0  0  0  0  0  0
   32.2837    4.8469    4.0227 C   0  0  0  0  0  0  0  0  0  0  0  0
   22.6493    1.8646    1.2389 C   0  0  0  0  0  0  0  0  0  0  0  0
   22.6913    0.1099    0.6472 O   0  5  0  0  0  0  0  0  0  0  0  0
   25.3734    0.4570    3.2750 O   0  0  0  0  0  0  0  0  0  0  0  0
   28.4549    2.4956    0.2068 O   0  0  0  0  0  0  0  0  0  0  0  0
   33.5243    3.9434    5.1317 O   0  0  0  0  0  0  0  0  0  0  0  0
   29.0258    6.2722    8.3720 C   0  0  0  0  0  0  0  0  0  0  0  0
   28.9423    8.0446    9.0226 O   0  0  0  0  0  0  0  0  0  0  0  0
   31.0796    9.0272    6.3748 O   0  0  0  0  0  0  0  0  0  0  0  0
   34.1376    7.3385    4.4213 O   0  0  0  0  0  0  0  0  0  0  0  0
   34.5675    9.0664    4.2603 C   0  0  0  0  0  0  0  0  0  0  0  0
   33.4936   10.2435    4.2367 O   0  0  0  0  0  0  0  0  0  0  0  0
   36.3041    9.4781    4.0982 N   0  0  0  0  0  0  0  0  0  0  0  0
   30.3168   15.8157    7.7200 C   0  0  0  0  0  0  0  0  0  0  0  0
   32.2211   16.5113    7.9461 C   0  0  0  0  0  0  0  0  0  0  0  0
   32.3800   17.9551    9.3313 C   0  0  0  0  0  0  0  0  0  0  0  0
   29.1491   17.3060    7.3098 N   0  0  0  0  0  0  0  0  0  0  0  0
   31.1380   18.6922   10.0051 O   0  0  0  0  0  0  0  0  0  0  0  0
   34.0657   18.4155    9.7540 N   0  0  0  0  0  0  0  0  0  0  0  0
   27.2744   16.9370    7.6219 C   0  0  0  0  0  0  0  0  0  0  0  0
   26.1166   18.2923    6.6488 C   0  0  0  0  0  0  0  0  0  0  0  0
   24.2611   18.0573    7.1896 N   0  0  0  0  0  0  0  0  0  0  0  0
   26.2362   18.2242    4.6415 C   0  0  0  0  0  0  0  0  0  0  0  0
   25.3503   19.1381    3.6829 O   0  0  0  0  0  0  0  0  0  0  0  0
   27.3997   17.0328    3.9582 N   0  0  0  0  0  0  0  0  0  0  0  0
   23.3502   10.7573    3.5912 C   0  0  0  0  0  0  0  0  0  0  0  0
   21.8111   10.1568    2.8647 N   0  0  0  0  0  0  0  0  0  0  0  0
   20.4393   11.3787    2.2193 C   0  0  0  0  0  0  0  0  0  0  0  0
   18.7266   10.2904    2.1036 C   0  0  0  0  0  0  0  0  0  0  0  0
   17.0334   11.0331    1.2494 C   0  0  0  0  0  0  0  0  0  0  0  0
   15.5607    9.6666    1.5215 C   0  0  0  0  0  0  0  0  0  0  0  0
   13.9855   10.0698    0.7295 N   0  0  0  0  0  0  0  0  0  0  0  0
   12.4772    8.8521    0.7242 C   0  0  0  0  0  0  0  0  0  0  0  0
   10.8385    9.9611    0.3358 C   0  0  0  0  0  0  0  0  0  0  0  0
    9.2669    9.0943    0.5521 N   0  0  0  0  0  0  0  0  0  0  0  0
    7.5662    9.9639    0.2149 C   0  0  0  0  0  0  0  0  0  0  0  0
    6.3128    8.6584   -0.7069 C   0  0  0  0  0  0  0  0  0  0  0  0
    4.5292    9.4626   -1.0694 C   0  0  0  0  0  0  0  0  0  0  0  0
   23.6350   12.3020    3.8850 O   0  0  0  0  0  0  0  0  0  0  0  0
   21.0605   12.2364    0.4889 C   0  0  0  0  0  0  0  0  0  0  0  0
   19.1034    8.6210    1.2924 O   0  0  0  0  0  0  0  0  0  0  0  0
   17.1608   11.4539   -0.7397 C   0  0  0  0  0  0  0  0  0  0  0  0
   15.8059    8.3246    2.3532 O   0  0  0  0  0  0  0  0  0  0  0  0
   12.6591    7.3816   -0.6660 C   0  0  0  0  0  0  0  0  0  0  0  0
   12.9663    8.0755   -2.5367 C   0  0  0  0  0  0  0  0  0  0  0  0
   14.1001    6.2568   -0.1930 O   0  0  0  0  0  0  0  0  0  0  0  0
   10.9688   11.4752   -0.1594 O   0  0  0  0  0  0  0  0  0  0  0  0
    2.6193    8.8262   -0.0978 S   0  0  0  0  0  0  0  0  0  0  0  0
    1.5199   10.4151   -1.3072 C   0  0  0  0  0  0  0  0  0  0  0  0
    2.6804   11.3208   -2.3716 C   0  0  0  0  0  0  0  0  0  0  0  0
    4.4033   10.7573   -2.2078 N   0  0  0  0  0  0  0  0  0  0  0  0
    2.2135   12.7878   -3.5602 C   0  0  0  0  0  0  0  0  0  0  0  0
    0.0990   13.3814   -4.0362 S   0  0  0  0  0  0  0  0  0  0  0  0
    0.8597   15.0290   -5.4024 C   0  0  0  0  0  0  0  0  0  0  0  0
    2.6738   15.0104   -5.4192 C   0  0  0  0  0  0  0  0  0  0  0  0
    3.4249   13.7229   -4.3786 N   0  0  0  0  0  0  0  0  0  0  0  0
    3.7265   16.2830   -6.4658 C   0  0  0  0  0  0  0  0  0  0  0  0
    5.5003   15.9750   -6.3373 N   0  0  0  0  0  0  0  0  0  0  0  0
    3.0952   17.4875   -7.3433 O   0  0  0  0  0  0  0  0  0  0  0  0
    6.7823   17.0759   -7.2859 C   0  0  0  0  0  0  0  0  0  0  0  0
    8.6416   16.7776   -6.5189 C   0  0  0  0  0  0  0  0  0  0  0  0
   10.0243   17.9830   -7.3916 C   0  0  0  0  0  0  0  0  0  0  0  0
   12.2583   17.5534   -6.6205 S   0  3  0  0  0  0  0  0  0  0  0  0
   12.1446   18.4659   -4.4158 C   0  0  0  0  0  0  0  0  0  0  0  0
   13.3824   19.3596   -7.7149 C   0  0  0  0  0  0  0  0  0  0  0  0
   31.9455   12.8830    0.9122 H   0  0  0  0  0  0  0  0  0  0  0  0
   32.9159   14.8383    1.9329 H   0  0  0  0  0  0  0  0  0  0  0  0
   28.8732   11.2240    1.0694 H   0  0  0  0  0  0  0  0  0  0  0  0
   29.3246    9.4123    2.6056 H   0  0  0  0  0  0  0  0  0  0  0  0
   31.0837   10.4756    1.5314 H   0  0  0  0  0  0  0  0  0  0  0  0
   26.8754   10.6930    2.7481 H   0  0  0  0  0  0  0  0  0  0  0  0
   24.4314    8.8402    5.3370 H   0  0  0  0  0  0  0  0  0  0  0  0
   23.3871    7.0401    2.9210 H   0  0  0  0  0  0  0  0  0  0  0  0
   26.5773    5.3772    0.7940 H   0  0  0  0  0  0  0  0  0  0  0  0
   22.0486    8.5462   -0.0813 H   0  0  0  0  0  0  0  0  0  0  0  0
   23.3045    9.5241   -3.0554 H   0  0  0  0  0  0  0  0  0  0  0  0
   27.6271    8.5021    0.2648 H   0  0  0  0  0  0  0  0  0  0  0  0
   24.7582    3.0537   -0.2731 H   0  0  0  0  0  0  0  0  0  0  0  0
   26.0046    0.2296    0.6656 H   0  0  0  0  0  0  0  0  0  0  0  0
   28.6190    1.1261    2.5410 H   0  0  0  0  0  0  0  0  0  0  0  0
   27.1620    3.4961    4.3624 H   0  0  0  0  0  0  0  0  0  0  0  0
   30.5728    2.5876    4.1283 H   0  0  0  0  0  0  0  0  0  0  0  0
   28.6999    6.8088    5.6088 H   0  0  0  0  0  0  0  0  0  0  0  0
   32.3949    6.8219    7.3215 H   0  0  0  0  0  0  0  0  0  0  0  0
   31.6067    7.5190    3.3797 H   0  0  0  0  0  0  0  0  0  0  0  0
   32.7182    4.6134    2.6312 H   0  0  0  0  0  0  0  0  0  0  0  0
   21.6834    2.5960    0.4033 H   0  0  0  0  0  0  0  0  0  0  0  0
   22.1505    1.8219    2.6238 H   0  0  0  0  0  0  0  0  0  0  0  0
   24.2438    0.0000    3.0237 H   0  0  0  0  0  0  0  0  0  0  0  0
   28.1608    1.5389   -0.5333 H   0  0  0  0  0  0  0  0  0  0  0  0
   33.3502    2.7197    4.9910 H   0  0  0  0  0  0  0  0  0  0  0  0
   29.8970    5.5124    9.2841 H   0  0  0  0  0  0  0  0  0  0  0  0
   27.6690    5.7021    8.4415 H   0  0  0  0  0  0  0  0  0  0  0  0
   28.6412    8.8033    8.0772 H   0  0  0  0  0  0  0  0  0  0  0  0
   32.0565    9.7073    6.0310 H   0  0  0  0  0  0  0  0  0  0  0  0
   37.1790    8.4709    4.1122 H   0  0  0  0  0  0  0  0  0  0  0  0
   36.5992   10.7732    3.9769 H   0  0  0  0  0  0  0  0  0  0  0  0
   29.9126   15.2202    9.0098 H   0  0  0  0  0  0  0  0  0  0  0  0
   32.7138   17.1020    6.6875 H   0  0  0  0  0  0  0  0  0  0  0  0
   33.1117   15.3943    8.3141 H   0  0  0  0  0  0  0  0  0  0  0  0
   29.5008   18.3691    8.0636 H   0  0  0  0  0  0  0  0  0  0  0  0
   34.2015   19.3885   10.6577 H   0  0  0  0  0  0  0  0  0  0  0  0
   35.0879   17.7914    9.1635 H   0  0  0  0  0  0  0  0  0  0  0  0
   27.0286   17.0020    9.0746 H   0  0  0  0  0  0  0  0  0  0  0  0
   26.8975   15.5887    7.1690 H   0  0  0  0  0  0  0  0  0  0  0  0
   26.5295   19.6552    7.0428 H   0  0  0  0  0  0  0  0  0  0  0  0
   23.4490   18.8176    6.4274 H   0  0  0  0  0  0  0  0  0  0  0  0
   23.8556   16.7863    6.9953 H   0  0  0  0  0  0  0  0  0  0  0  0
   27.4735   16.9740    2.6271 H   0  0  0  0  0  0  0  0  0  0  0  0
   28.1408   16.2719    4.7689 H   0  0  0  0  0  0  0  0  0  0  0  0
   21.7378    8.8796    2.4785 H   0  0  0  0  0  0  0  0  0  0  0  0
   20.2344   12.4494    3.2183 H   0  0  0  0  0  0  0  0  0  0  0  0
   18.4021    9.9669    3.5130 H   0  0  0  0  0  0  0  0  0  0  0  0
   16.6275   12.2523    1.9783 H   0  0  0  0  0  0  0  0  0  0  0  0
   13.8315   11.2247    0.0752 H   0  0  0  0  0  0  0  0  0  0  0  0
   12.2951    8.2806    2.0724 H   0  0  0  0  0  0  0  0  0  0  0  0
    9.2777    7.8541    1.0473 H   0  0  0  0  0  0  0  0  0  0  0  0
    7.7358   11.1557   -0.6351 H   0  0  0  0  0  0  0  0  0  0  0  0
    6.9970   10.3962    1.5038 H   0  0  0  0  0  0  0  0  0  0  0  0
    6.1606    7.4502    0.1237 H   0  0  0  0  0  0  0  0  0  0  0  0
    6.9008    8.2246   -1.9882 H   0  0  0  0  0  0  0  0  0  0  0  0
   20.3138   13.4704    0.2044 H   0  0  0  0  0  0  0  0  0  0  0  0
   20.9434   11.3126   -0.6488 H   0  0  0  0  0  0  0  0  0  0  0  0
   22.4699   12.6529    0.5615 H   0  0  0  0  0  0  0  0  0  0  0  0
   18.1451    7.8690    1.5810 H   0  0  0  0  0  0  0  0  0  0  0  0
   15.8584   11.8025   -1.3262 H   0  0  0  0  0  0  0  0  0  0  0  0
   17.6878   10.3128   -1.5046 H   0  0  0  0  0  0  0  0  0  0  0  0
   17.9887   12.6287   -1.0218 H   0  0  0  0  0  0  0  0  0  0  0  0
   11.4543    6.5288   -0.6552 H   0  0  0  0  0  0  0  0  0  0  0  0
   13.1106    6.9619   -3.4899 H   0  0  0  0  0  0  0  0  0  0  0  0
   14.1925    8.8863   -2.6156 H   0  0  0  0  0  0  0  0  0  0  0  0
   11.8418    8.9058   -2.9971 H   0  0  0  0  0  0  0  0  0  0  0  0
   14.0932    5.2453   -0.9172 H   0  0  0  0  0  0  0  0  0  0  0  0
    0.0917   10.6449   -1.2041 H   0  0  0  0  0  0  0  0  0  0  0  0
    0.0000   15.9418   -6.1316 H   0  0  0  0  0  0  0  0  0  0  0  0
    5.9096   14.9065   -5.6498 H   0  0  0  0  0  0  0  0  0  0  0  0
    6.4241   18.4989   -7.1418 H   0  0  0  0  0  0  0  0  0  0  0  0
    6.7560   16.7260   -8.7172 H   0  0  0  0  0  0  0  0  0  0  0  0
    9.0143   15.3622   -6.7112 H   0  0  0  0  0  0  0  0  0  0  0  0
    8.5984   17.0326   -5.0664 H   0  0  0  0  0  0  0  0  0  0  0  0
    9.6854   19.3967   -7.1578 H   0  0  0  0  0  0  0  0  0  0  0  0
   10.0353   17.7500   -8.8470 H   0  0  0  0  0  0  0  0  0  0  0  0
   13.5086   18.5619   -3.8735 H   0  0  0  0  0  0  0  0  0  0  0  0
   11.3611   17.5649   -3.5578 H   0  0  0  0  0  0  0  0  0  0  0  0
   11.5272   19.8002   -4.4151 H   0  0  0  0  0  0  0  0  0  0  0  0
   14.7721   19.4147   -7.2362 H   0  0  0  0  0  0  0  0  0  0  0  0
   12.7267   20.6475   -7.4441 H   0  0  0  0  0  0  0  0  0  0  0  0
   13.3849   19.1125   -9.1650 H   0  0  0  0  0  0  0  0  0  0  0  0
  1  2  2  0  0  0  0
  1  6  1  0  0  0  0
  1 45  1  1  0  0  0
  2  3  1  6  0  0  0
  3  4  2  0  0  0  0
  3  7  1  6  0  0  0
  4  5  1  1  0  0  0
  4  8  1  6  0  0  0
  5  6  2  0  0  0  0
  5  9  1  0  0  0  0
  7 97  1  6  0  0  0
  7 98  1  0  0  0  0
  8 99  1  6  0  0  0
  8100  1  0  0  0  0
  8101  1  0  0  0  0
  9 10  1  6  0  0  0
  9 15  2  0  0  0  0
 10 11  1  0  0  0  0
 10102  1  6  0  0  0
 11 12  1  6  0  0  0
 11 57  1  0  0  0  0
 11103  1  1  0  0  0
 12 13  1  0  0  0  0
 12 16  1  6  0  0  0
 12104  1  0  0  0  0
 13 14  1  6  0  0  0
 14 21  1  0  0  0  0
 14 25  1  0  0  0  0
 14105  1  6  0  0  0
 16 17  1  6  0  0  0
 16 20  2  0  0  0  0
 17 18  1  6  0  0  0
 17106  1  0  0  0  0
 18 19  2  0  0  0  0
 18107  1  6  0  0  0
 19 20  1  1  0  0  0
 20108  1  0  0  0  0
 21 22  1  6  0  0  0
 22 23  1  0  0  0  0
 22 33  1  0  0  0  0
 22109  1  6  0  0  0
 23 24  1  0  0  0  0
 23 35  1  1  0  0  0
 23110  1  6  0  0  0
 24 25  1  1  0  0  0
 24 36  1  6  0  0  0
 24111  1  0  0  0  0
 25 26  1  0  0  0  0
 25112  1  1  0  0  0
 26 27  1  1  0  0  0
 27 28  1  1  0  0  0
 27 32  1  0  0  0  0
 27113  1  0  0  0  0
 28 29  1  0  0  0  0
 29 30  1  0  0  0  0
 29 38  1  1  0  0  0
 29114  1  6  0  0  0
 30 31  1  6  0  0  0
 30 40  1  0  0  0  0
 30115  1  1  0  0  0
 31 32  1  0  0  0  0
 31 41  1  0  0  0  0
 31116  1  6  0  0  0
 32 37  1  1  0  0  0
 32117  1  6  0  0  0
 33 34  1  0  0  0  0
 33118  1  6  0  0  0
 33119  1  1  0  0  0
 35120  1  0  0  0  0
 36121  1  6  0  0  0
 37122  1  0  0  0  0
 38 39  1  0  0  0  0
 38123  1  1  0  0  0
 38124  1  0  0  0  0
 39125  1  6  0  0  0
 40126  1  0  0  0  0
 41 42  1  0  0  0  0
 42 43  2  0  0  0  0
 42 44  1  0  0  0  0
 44127  1  0  0  0  0
 44128  1  0  0  0  0
 45 46  1  0  0  0  0
 45 48  1  0  0  0  0
 45129  1  1  0  0  0
 46 47  1  1  0  0  0
 46130  1  6  0  0  0
 46131  1  0  0  0  0
 47 49  2  0  0  0  0
 47 50  1  0  0  0  0
 48 51  1  0  0  0  0
 48132  1  1  0  0  0
 50133  1  1  0  0  0
 50134  1  0  0  0  0
 51 52  1  6  0  0  0
 51135  1  1  0  0  0
 51136  1  0  0  0  0
 52 53  1  0  0  0  0
 52 54  1  6  0  0  0
 52137  1  0  0  0  0
 53138  1  6  0  0  0
 53139  1  0  0  0  0
 54 55  2  0  0  0  0
 54 56  1  0  0  0  0
 56140  1  6  0  0  0
 56141  1  1  0  0  0
 57 58  1  0  0  0  0
 57 70  2  0  0  0  0
 58 59  1  0  0  0  0
 58142  1  0  0  0  0
 59 60  1  0  0  0  0
 59 71  1  6  0  0  0
 59143  1  1  0  0  0
 60 61  1  0  0  0  0
 60 72  1  0  0  0  0
 60144  1  1  0  0  0
 61 62  1  0  0  0  0
 61 73  1  6  0  0  0
 61145  1  1  0  0  0
 62 63  1  0  0  0  0
 62 74  2  0  0  0  0
 63 64  1  0  0  0  0
 63146  1  6  0  0  0
 64 65  1  0  0  0  0
 64 75  1  6  0  0  0
 64147  1  1  0  0  0
 65 66  1  0  0  0  0
 65 78  2  0  0  0  0
 66 67  1  0  0  0  0
 66148  1  0  0  0  0
 67 68  1  6  0  0  0
 67149  1  6  0  0  0
 67150  1  1  0  0  0
 68 69  1  0  0  0  0
 68151  1  1  0  0  0
 68152  1  6  0  0  0
 69 79  1  0  0  0  0
 69 82  2  0  0  0  0
 71153  1  0  0  0  0
 71154  1  6  0  0  0
 71155  1  0  0  0  0
 72156  1  0  0  0  0
 73157  1  0  0  0  0
 73158  1  6  0  0  0
 73159  1  0  0  0  0
 75 76  1  6  0  0  0
 75 77  1  0  0  0  0
 75160  1  0  0  0  0
 76161  1  6  0  0  0
 76162  1  0  0  0  0
 76163  1  0  0  0  0
 77164  1  6  0  0  0
 79 80  1  6  0  0  0
 80 81  2  0  0  0  0
 80165  1  0  0  0  0
 81 82  1  0  0  0  0
 81 83  1  6  0  0  0
 83 84  1  0  0  0  0
 83 87  2  0  0  0  0
 84 85  1  6  0  0  0
 85 86  2  0  0  0  0
 85166  1  6  0  0  0
 86 87  1  1  0  0  0
 86 88  1  6  0  0  0
 88 89  1  0  0  0  0
 88 90  2  0  0  0  0
 89 91  1  6  0  0  0
 89167  1  1  0  0  0
 91 92  1  0  0  0  0
 91168  1  0  0  0  0
 91169  1  6  0  0  0
 92 93  1  0  0  0  0
 92170  1  0  0  0  0
 92171  1  1  0  0  0
 93 94  1  0  0  0  0
 93172  1  0  0  0  0
 93173  1  6  0  0  0
 94 95  1  1  0  0  0
 94 96  1  6  0  0  0
 95174  1  0  0  0  0
 95175  1  1  0  0  0
 95176  1  0  0  0  0
 96177  1  0  0  0  0
 96178  1  0  0  0  0
 96179  1  6  0  0  0
M  END
>  <Formula> (258)
C55H83N17O21S3

>  <Name> (258)
BLEOMYCIN A

>  <CAS-Nr> (258)
---

>  <Compound classification> (258)
AB-GlPe

>  <Microorganism> (258)
Botritis bassiana

>  <Microorganism classification> (258)
fungi

>  <MIC> (258)
100

>  <Method abbreviation> (258)
ADlT

>  <Ref-Nr> (258)
7240

>  <Marker> (258)
0

>  <Method> (258)
Agar dilution test; Inoculum size: ---; Medium: ---; pH: ---; Incubation-temperature: -- degrees Centigrade; Incubation-time: ---; Solubility enhancer: ---;

>  <Reference> (258)
Umezawa, H., Maeda, K., Okami, Y., Takeuchi, T.: Bleomycin and Process for the Preparation Thereof; US 3,681,491 (1972)

>  <mol_id> (258)
4154

>  <LD50-mou-ip> (258)
>125

>  <MolWeight> (258)
1414.54

>  <Nickname> (258)
Bleomycin A Complex (structure Bleomycin A2)

>  <other Names> (258)
Bleomycin A complex

$$$$
>  <Name> (259)
[2S-[2ALPHA,5ALPHA,6BETA(S*)]]-6-[(AMINOPHENYLACETYL)AMINO]-3,3-DIMETHYL-7-OXO-4-THIA-1-AZABICYCLO[3.2.0]HEPTANE-2-CARBOXYLIC ACID

>  <CAS-Nr> (259)
69-53-4

>  <EINECS> (259)
200-709-7

>  <21 CFR> (259)
556.40

>  <LD50-rat-oral> (259)
10000

>  <Compound classification> (259)
AB-bLac

>  <Microorganism> (259)
Staphylococcus aureus

>  <Microorganism classification> (259)
Bac+

>  <MIC> (259)
250

>  <Method abbreviation> (259)
SDT

>  <Ref-Nr> (259)
7273

>  <Marker> (259)
0

>  <Method> (259)
Serial dilution test; Inoculum size: 5 x 10E4 CFU/ml; Medium: Oxoid sensitivity test broth; pH: ---; Incubation-temperature: -- degrees Centigrade; Incubation-time: overnight; Solubility enhancer: ---;

>  <Reference> (259)
Cole, M., Howarth, T.T., Reading, C.: Novel beta-Lactam Antibiotic from Streptomyces clavuligerus; GB 1,508,977 (1978)

>  <mol_id> (259)
2136

>  <LD50-mouse-oral> (259)
15200

>  <LD50-mou-ip> (259)
3250

>  <Nickname> (259)
Ampicillin

>  <other Names> (259)
AB-PC, Adobacillin, Amblosin, Amfipen, Aminobenzylpenicillin, D-(-)-alpha-Aminobenzylpenicillin, D-(-)-alpha-Aminopenicillin, 6-(D(-)-alpha-Aminophenylacetamido)penicillanic acid, Amipenix S, Ampi-bol, Ampicillin, D-Ampicillin, D-(-)-Ampicillin, Ampicillin A, Ampicillin acid, Ampicillin anhydrate, Ampicin, Ampimed, Ampipenin, Amplisom, Amplital, Ampy-Penyl, Austrapen, AY-6108, Binotal, Bonapicillin, Britacil, BRL 1341, Copharcilin, Doktacillin, Grampenil, Guicitrina, NSC-528986, Nuvapen, Olin Kid, Omnipen, P-50, Penbristol, Penbritin, Penbritin paediatric, Penbritin syrup, Penbrock, Penicillin, (aminophenylmethyl)-, Penicline, Pentrex, Pentrexl, Pfizerpen A, Ponecil, Principen, Qidamp, Roscillin, Semicillin, SK-Ampicillin, Synpenin, Tokiocillin, Tolomol, Totacillin, Totalciclina, Totapen, Ultrabron, Viccillin, Viccillin S, WY-5103

>  <LD50-mou-iv> (259)
4600

$$$$
>  <Name> (260)
[2S-[2ALPHA,5ALPHA,6BETA(S*)]]-6-[(AMINOPHENYLACETYL)AMINO]-3,3-DIMETHYL-7-OXO-4-THIA-1-AZABICYCLO[3.2.0]HEPTANE-2-CARBOXYLIC ACID

>  <CAS-Nr> (260)
69-53-4

>  <EINECS> (260)
200-709-7

>  <21 CFR> (260)
556.40

>  <LD50-rat-oral> (260)
10000

>  <Compound classification> (260)
AB-bLac

>  <Microorganism> (260)
Staphylococcus aureus

>  <Microorganism type> (260)
Russell

>  <Microorganism classification> (260)
Bac+

>  <MIC> (260)
500

>  <Method abbreviation> (260)
SDT

>  <Ref-Nr> (260)
7273

>  <Marker> (260)
0

>  <Method> (260)
Serial dilution test; Inoculum size: 5 x 10E4 CFU/ml; Medium: Oxoid sensitivity test broth; pH: ---; Incubation-temperature: -- degrees Centigrade; Incubation-time: overnight; Solubility enhancer: ---;

>  <Reference> (260)
Cole, M., Howarth, T.T., Reading, C.: Novel beta-Lactam Antibiotic from Streptomyces clavuligerus; GB 1,508,977 (1978)

>  <mol_id> (260)
2136

>  <LD50-mouse-oral> (260)
15200

>  <LD50-mou-ip> (260)
3250

>  <Nickname> (260)
Ampicillin

>  <other Names> (260)
AB-PC, Adobacillin, Amblosin, Amfipen, Aminobenzylpenicillin, D-(-)-alpha-Aminobenzylpenicillin, D-(-)-alpha-Aminopenicillin, 6-(D(-)-alpha-Aminophenylacetamido)penicillanic acid, Amipenix S, Ampi-bol, Ampicillin, D-Ampicillin, D-(-)-Ampicillin, Ampicillin A, Ampicillin acid, Ampicillin anhydrate, Ampicin, Ampimed, Ampipenin, Amplisom, Amplital, Ampy-Penyl, Austrapen, AY-6108, Binotal, Bonapicillin, Britacil, BRL 1341, Copharcilin, Doktacillin, Grampenil, Guicitrina, NSC-528986, Nuvapen, Olin Kid, Omnipen, P-50, Penbristol, Penbritin, Penbritin paediatric, Penbritin syrup, Penbrock, Penicillin, (aminophenylmethyl)-, Penicline, Pentrex, Pentrexl, Pfizerpen A, Ponecil, Principen, Qidamp, Roscillin, Semicillin, SK-Ampicillin, Synpenin, Tokiocillin, Tolomol, Totacillin, Totalciclina, Totapen, Ultrabron, Viccillin, Viccillin S, WY-5103

>  <LD50-mou-iv> (260)
4600

$$$$

csChmFindW11180110282D

 76 78  0  0  0  0  0  0  0  0999 V2000
   14.0879    5.6417   -1.0658 C   0  0  0  0  0  0  0  0  0  0  0  0
   16.1010    4.8369   -1.1559 C   0  0  0  0  0  0  0  0  0  0  0  0
   17.3773    5.6823    0.3998 C   0  0  0  0  0  0  0  0  0  0  0  0
   17.2012    7.8685    0.3935 C   0  0  0  0  0  0  0  0  0  0  0  0
   15.1150    8.3995    0.5805 C   0  0  0  0  0  0  0  0  0  0  0  0
   13.9946    7.6217   -0.8850 O   0  0  0  0  0  0  0  0  0  0  0  0
   17.9881    8.6292   -1.2794 O   0  0  0  0  0  0  0  0  0  0  0  0
   18.2938    8.7455    2.0176 C   0  0  0  0  0  0  0  0  0  0  0  0
   19.2927    4.9925    0.1864 N   0  0  0  0  0  0  0  0  0  0  0  0
   20.2169    4.4635    1.9074 C   0  0  0  0  0  0  0  0  0  0  0  0
   16.7440    5.2741   -2.9980 O   0  0  0  0  0  0  0  0  0  0  0  0
   13.2116    4.9495    0.5864 O   0  0  0  0  0  0  0  0  0  0  0  0
    7.9444    5.2945   -0.0824 C   0  0  0  0  0  0  0  0  0  0  0  0
   10.0040    5.9498   -0.1659 C   0  0  0  0  0  0  0  0  0  0  0  0
   11.3163    4.3267    0.4106 C   0  0  0  0  0  0  0  0  0  0  0  0
   11.0603    2.6474   -0.9487 C   0  0  0  0  0  0  0  0  0  0  0  0
    8.9956    2.0130   -0.8093 C   0  0  0  0  0  0  0  0  0  0  0  0
    7.6082    3.5654   -1.3802 C   0  0  0  0  0  0  0  0  0  0  0  0
   12.4375    1.1749   -0.6271 N   0  0  0  0  0  0  0  0  0  0  0  0
    7.6206    3.9389   -3.3833 N   0  0  0  0  0  0  0  0  0  0  0  0
   10.1943    7.4639    1.1224 O   0  0  0  0  0  0  0  0  0  0  0  0
    6.7412    6.7596   -0.7547 O   0  0  0  0  0  0  0  0  0  0  0  0
    2.5947    9.4038    2.1416 C   0  0  0  0  0  0  0  0  0  0  0  0
    3.9283   10.7275    1.1347 C   0  0  0  0  0  0  0  0  0  0  0  0
    5.0443    9.6361   -0.3608 C   0  0  0  0  0  0  0  0  0  0  0  0
    6.0425    7.9728    0.6614 C   0  0  0  0  0  0  0  0  0  0  0  0
    4.7440    6.7864    1.6259 O   0  0  0  0  0  0  0  0  0  0  0  0
    3.6797    7.7767    3.0191 C   0  0  0  0  0  0  0  0  0  0  0  0
    2.3745    6.3094    3.9802 C   0  0  0  0  0  0  0  0  0  0  0  0
    3.3743    4.8401    5.0011 N   0  0  0  0  0  0  0  0  0  0  0  0
    4.4070    5.4650    6.6249 C   0  0  0  0  0  0  0  0  0  0  0  0
    1.0254    5.4533    2.5377 C   0  0  0  0  0  0  0  0  0  0  0  0
    6.3002   10.8247   -1.4326 N   0  0  0  0  0  0  0  0  0  0  0  0
   13.3035    5.3193   -2.4038 H   0  0  0  0  0  0  0  0  0  0  0  0
   16.0146    3.2644   -0.9678 H   0  0  0  0  0  0  0  0  0  0  0  0
   16.7670    5.1737    1.7799 H   0  0  0  0  0  0  0  0  0  0  0  0
   14.9276    9.9598    0.4059 H   0  0  0  0  0  0  0  0  0  0  0  0
   14.5666    7.9229    1.9823 H   0  0  0  0  0  0  0  0  0  0  0  0
   17.2117    8.1974   -2.3154 H   0  0  0  0  0  0  0  0  0  0  0  0
   17.9406   10.2729    2.1330 H   0  0  0  0  0  0  0  0  0  0  0  0
   19.8393    8.6205    1.7616 H   0  0  0  0  0  0  0  0  0  0  0  0
   17.9244    8.0238    3.3619 H   0  0  0  0  0  0  0  0  0  0  0  0
   20.0572    5.9346   -0.5418 H   0  0  0  0  0  0  0  0  0  0  0  0
   21.6665    3.9455    1.5521 H   0  0  0  0  0  0  0  0  0  0  0  0
   19.4125    3.2873    2.5895 H   0  0  0  0  0  0  0  0  0  0  0  0
   20.3492    5.6437    2.9563 H   0  0  0  0  0  0  0  0  0  0  0  0
   17.9183    4.6133   -3.1740 H   0  0  0  0  0  0  0  0  0  0  0  0
    7.5730    4.9117    1.4067 H   0  0  0  0  0  0  0  0  0  0  0  0
   10.3696    6.4577   -1.6227 H   0  0  0  0  0  0  0  0  0  0  0  0
   10.9773    3.8826    1.9005 H   0  0  0  0  0  0  0  0  0  0  0  0
   11.3229    3.1514   -2.4377 H   0  0  0  0  0  0  0  0  0  0  0  0
    8.6694    1.5873    0.6755 H   0  0  0  0  0  0  0  0  0  0  0  0
    8.7653    0.7529   -1.7332 H   0  0  0  0  0  0  0  0  0  0  0  0
    6.1386    3.0442   -1.0399 H   0  0  0  0  0  0  0  0  0  0  0  0
   12.0615    0.0000   -1.3098 H   0  0  0  0  0  0  0  0  0  0  0  0
   12.5649    0.8936    0.7479 H   0  0  0  0  0  0  0  0  0  0  0  0
    8.8571    4.4837   -3.7867 H   0  0  0  0  0  0  0  0  0  0  0  0
    6.5981    4.8617   -3.6955 H   0  0  0  0  0  0  0  0  0  0  0  0
   11.4993    7.8577    1.0598 H   0  0  0  0  0  0  0  0  0  0  0  0
    1.5374    8.8469    1.1103 H   0  0  0  0  0  0  0  0  0  0  0  0
    1.8147   10.1786    3.2715 H   0  0  0  0  0  0  0  0  0  0  0  0
    4.9173   11.3900    2.1714 H   0  0  0  0  0  0  0  0  0  0  0  0
    3.1124   11.8864    0.4420 H   0  0  0  0  0  0  0  0  0  0  0  0
    4.0132    8.9956   -1.3915 H   0  0  0  0  0  0  0  0  0  0  0  0
    7.1835    8.4571    1.6483 H   0  0  0  0  0  0  0  0  0  0  0  0
    4.6937    8.3627    4.0951 H   0  0  0  0  0  0  0  0  0  0  0  0
    1.5172    7.1262    5.0460 H   0  0  0  0  0  0  0  0  0  0  0  0
    4.2111    4.1305    4.1108 H   0  0  0  0  0  0  0  0  0  0  0  0
    4.9738    4.1891    7.3657 H   0  0  0  0  0  0  0  0  0  0  0  0
    3.4332    6.2271    7.6074 H   0  0  0  0  0  0  0  0  0  0  0  0
    5.6238    6.4248    6.2956 H   0  0  0  0  0  0  0  0  0  0  0  0
    0.2186    4.2591    3.1658 H   0  0  0  0  0  0  0  0  0  0  0  0
    1.8201    4.9310    1.2863 H   0  0  0  0  0  0  0  0  0  0  0  0
    0.0000    6.5476    2.0697 H   0  0  0  0  0  0  0  0  0  0  0  0
    6.9902   10.0482   -2.3872 H   0  0  0  0  0  0  0  0  0  0  0  0
    7.2382   11.4547   -0.5891 H   0  0  0  0  0  0  0  0  0  0  0  0
  1  2  1  0  0  0  0
  1  6  1  0  0  0  0
  1 12  1  1  0  0  0
  1 34  1  6  0  0  0
  2  3  1  1  0  0  0
  2 11  1  6  0  0  0
  2 35  1  0  0  0  0
  3  4  1  0  0  0  0
  3  9  1  0  0  0  0
  3 36  1  1  0  0  0
  4  5  1  0  0  0  0
  4  7  1  6  0  0  0
  4  8  1  1  0  0  0
  5  6  1  6  0  0  0
  5 37  1  0  0  0  0
  5 38  1  1  0  0  0
  7 39  1  6  0  0  0
  8 40  1  0  0  0  0
  8 41  1  0  0  0  0
  8 42  1  1  0  0  0
  9 10  1  1  0  0  0
  9 43  1  6  0  0  0
 10 44  1  0  0  0  0
 10 45  1  0  0  0  0
 10 46  1  1  0  0  0
 11 47  1  0  0  0  0
 12 15  1  0  0  0  0
 13 14  1  0  0  0  0
 13 18  1  6  0  0  0
 13 22  1  0  0  0  0
 13 48  1  1  0  0  0
 14 15  1  0  0  0  0
 14 21  1  1  0  0  0
 14 49  1  6  0  0  0
 15 16  1  6  0  0  0
 15 50  1  1  0  0  0
 16 17  1  0  0  0  0
 16 19  1  0  0  0  0
 16 51  1  6  0  0  0
 17 18  1  0  0  0  0
 17 52  1  1  0  0  0
 17 53  1  6  0  0  0
 18 20  1  6  0  0  0
 18 54  1  0  0  0  0
 19 55  1  6  0  0  0
 19 56  1  1  0  0  0
 20 57  1  0  0  0  0
 20 58  1  0  0  0  0
 21 59  1  0  0  0  0
 22 26  1  1  0  0  0
 23 24  1  6  0  0  0
 23 28  1  0  0  0  0
 23 60  1  6  0  0  0
 23 61  1  1  0  0  0
 24 25  1  6  0  0  0
 24 62  1  1  0  0  0
 24 63  1  0  0  0  0
 25 26  1  1  0  0  0
 25 33  1  6  0  0  0
 25 64  1  6  0  0  0
 26 27  1  1  0  0  0
 26 65  1  1  0  0  0
 27 28  1  1  0  0  0
 28 29  1  0  0  0  0
 28 66  1  1  0  0  0
 29 30  1  1  0  0  0
 29 32  1  6  0  0  0
 29 67  1  1  0  0  0
 30 31  1  1  0  0  0
 30 68  1  6  0  0  0
 31 69  1  1  0  0  0
 31 70  1  1  0  0  0
 31 71  1  0  0  0  0
 32 72  1  0  0  0  0
 32 73  1  6  0  0  0
 32 74  1  0  0  0  0
 33 75  1  6  0  0  0
 33 76  1  1  0  0  0
M  END
>  <Formula> (261)
C21H43N5O7

>  <Name> (261)
2-{4,6-DIAMINO-3-[3-AMINO-6-(1-METHYLAMINO-ETHYL)-TETRAHYDRO-PYRAN-2-YLOXY]-2-HYDROXY-CYCLOHEXYLOXY)-5-METHYL-4-METHYLAMINO-TETRAHYDRO-PYRAN-3,5-DIOL

>  <CAS-Nr> (261)
1403-66-3

>  <EINECS> (261)
215-765-8

>  <21 CFR> (261)
556.300, 520.1044a, 520.1044b, 520.1044c, 524.1044

>  <LD50-rat-oral> (261)
6600

>  <Compound classification> (261)
AB-AmGl

>  <Microorganism> (261)
Enterococcus faecalis

>  <Microorganism type> (261)
IFO-1296

>  <Microorganism classification> (261)
Bac+

>  <MIC> (261)
6.25

>  <Method abbreviation> (261)
ADlT

>  <Ref-Nr> (261)
7279

>  <Marker> (261)
0

>  <Method> (261)
Agar dilution test; Inoculum size: ---; Medium: Mueller-Hinton agar; pH: ---; Incubation-temperature: 37 degrees Centigrade; Incubation-time: 24h; Solubility enhancer: --; method cited

>  <Reference> (261)
Morita, Y., Matsumura, E., Tsujibo, A., Yasuda, M., Sakagami, Y., Okabe, T., Ishida, N., Inamori, Y.: Biological Activity of alpha-Thujaplicin, the Minor Component of Thujopsis dolabrata SIEB. et ZUCC. var. hondai MAKINO; Biological Pharmaceutical Bulletin 24, 607-11 (2001)

>  <mol_id> (261)
2159

>  <LD50-mouse-oral> (261)
>10000

>  <LD50-mou-ip> (261)
235

>  <MolWeight> (261)
477.60

>  <Nickname> (261)
Gentamycin Antibiotic complex (C1 Structure)

>  <other Names> (261)
Cidomycin, Garamycin, Garasol, Gentacycol, Gentamicin, Gentamicina, Gentamicine, Gentamicinum, Gentamycin, Gentamycin-crme, Gentamycinum, Gentavet, Gentocin, HSDB 3087, Refobacin, Refobacin TM, Uromycine

>  <LD50-mou-iv> (261)
43,5

$$$$
>  <Name> (262)
[2S-[2ALPHA,5ALPHA,6BETA(S*)]]-6-[(AMINOPHENYLACETYL)AMINO]-3,3-DIMETHYL-7-OXO-4-THIA-1-AZABICYCLO[3.2.0]HEPTANE-2-CARBOXYLIC ACID

>  <CAS-Nr> (262)
69-53-4

>  <EINECS> (262)
200-709-7

>  <21 CFR> (262)
556.40

>  <LD50-rat-oral> (262)
10000

>  <Compound classification> (262)
AB-bLac

>  <Microorganism> (262)
Staphylococcus aureus

>  <Microorganism type> (262)
NCCLS strain, A20698

>  <Microorganism classification> (262)
Bac+

>  <MIC> (262)
0.06

>  <Method abbreviation> (262)
SDT

>  <Ref-Nr> (262)
7308

>  <Marker> (262)
0

>  <Method> (262)
Serial dilution test; Inoculum size: ---; Medium: nutrient broth; pH: ---; Incubation-temperature: -- degrees Centigrade; Incubation-time: ---; Solubility enhancer: ---

>  <Reference> (262)
Schroeder, D.R., Lam, K.S., Veitch, J.M.: Antitumor Antibiotic; US 5,304,373 (1994)

>  <mol_id> (262)
2136

>  <LD50-mouse-oral> (262)
15200

>  <LD50-mou-ip> (262)
3250

>  <Nickname> (262)
Ampicillin

>  <other Names> (262)
AB-PC, Adobacillin, Amblosin, Amfipen, Aminobenzylpenicillin, D-(-)-alpha-Aminobenzylpenicillin, D-(-)-alpha-Aminopenicillin, 6-(D(-)-alpha-Aminophenylacetamido)penicillanic acid, Amipenix S, Ampi-bol, Ampicillin, D-Ampicillin, D-(-)-Ampicillin, Ampicillin A, Ampicillin acid, Ampicillin anhydrate, Ampicin, Ampimed, Ampipenin, Amplisom, Amplital, Ampy-Penyl, Austrapen, AY-6108, Binotal, Bonapicillin, Britacil, BRL 1341, Copharcilin, Doktacillin, Grampenil, Guicitrina, NSC-528986, Nuvapen, Olin Kid, Omnipen, P-50, Penbristol, Penbritin, Penbritin paediatric, Penbritin syrup, Penbrock, Penicillin, (aminophenylmethyl)-, Penicline, Pentrex, Pentrexl, Pfizerpen A, Ponecil, Principen, Qidamp, Roscillin, Semicillin, SK-Ampicillin, Synpenin, Tokiocillin, Tolomol, Totacillin, Totalciclina, Totapen, Ultrabron, Viccillin, Viccillin S, WY-5103

>  <LD50-mou-iv> (262)
4600

$$$$
>  <Name> (263)
[2S-[2ALPHA,5ALPHA,6BETA(S*)]]-6-[(AMINOPHENYLACETYL)AMINO]-3,3-DIMETHYL-7-OXO-4-THIA-1-AZABICYCLO[3.2.0]HEPTANE-2-CARBOXYLIC ACID

>  <CAS-Nr> (263)
69-53-4

>  <EINECS> (263)
200-709-7

>  <21 CFR> (263)
556.40

>  <LD50-rat-oral> (263)
10000

>  <Compound classification> (263)
AB-bLac

>  <Microorganism> (263)
Staphylococcus aureus

>  <Microorganism type> (263)
A9537

>  <Microorganism classification> (263)
Bac+

>  <MIC> (263)
0.06

>  <Method abbreviation> (263)
SDT

>  <Ref-Nr> (263)
7308

>  <Marker> (263)
0

>  <Method> (263)
Serial dilution test; Inoculum size: ---; Medium: nutrient broth; pH: ---; Incubation-temperature: -- degrees Centigrade; Incubation-time: ---; Solubility enhancer: ---

>  <Reference> (263)
Schroeder, D.R., Lam, K.S., Veitch, J.M.: Antitumor Antibiotic; US 5,304,373 (1994)

>  <mol_id> (263)
2136

>  <LD50-mouse-oral> (263)
15200

>  <LD50-mou-ip> (263)
3250

>  <Nickname> (263)
Ampicillin

>  <other Names> (263)
AB-PC, Adobacillin, Amblosin, Amfipen, Aminobenzylpenicillin, D-(-)-alpha-Aminobenzylpenicillin, D-(-)-alpha-Aminopenicillin, 6-(D(-)-alpha-Aminophenylacetamido)penicillanic acid, Amipenix S, Ampi-bol, Ampicillin, D-Ampicillin, D-(-)-Ampicillin, Ampicillin A, Ampicillin acid, Ampicillin anhydrate, Ampicin, Ampimed, Ampipenin, Amplisom, Amplital, Ampy-Penyl, Austrapen, AY-6108, Binotal, Bonapicillin, Britacil, BRL 1341, Copharcilin, Doktacillin, Grampenil, Guicitrina, NSC-528986, Nuvapen, Olin Kid, Omnipen, P-50, Penbristol, Penbritin, Penbritin paediatric, Penbritin syrup, Penbrock, Penicillin, (aminophenylmethyl)-, Penicline, Pentrex, Pentrexl, Pfizerpen A, Ponecil, Principen, Qidamp, Roscillin, Semicillin, SK-Ampicillin, Synpenin, Tokiocillin, Tolomol, Totacillin, Totalciclina, Totapen, Ultrabron, Viccillin, Viccillin S, WY-5103

>  <LD50-mou-iv> (263)
4600

$$$$
>  <Name> (264)
[2S-[2ALPHA,5ALPHA,6BETA(S*)]]-6-[(AMINOPHENYLACETYL)AMINO]-3,3-DIMETHYL-7-OXO-4-THIA-1-AZABICYCLO[3.2.0]HEPTANE-2-CARBOXYLIC ACID

>  <CAS-Nr> (264)
69-53-4

>  <EINECS> (264)
200-709-7

>  <21 CFR> (264)
556.40

>  <LD50-rat-oral> (264)
10000

>  <Compound classification> (264)
AB-bLac

>  <Microorganism> (264)
Staphylococcus aureus

>  <Microorganism type> (264)
A24407

>  <Microorganism classification> (264)
Bac+

>  <MIC> (264)
0.5

>  <Method abbreviation> (264)
SDT

>  <Ref-Nr> (264)
7308

>  <Marker> (264)
0

>  <Method> (264)
Serial dilution test; Inoculum size: ---; Medium: nutrient broth; pH: ---; Incubation-temperature: -- degrees Centigrade; Incubation-time: ---; Solubility enhancer: ---

>  <Reference> (264)
Schroeder, D.R., Lam, K.S., Veitch, J.M.: Antitumor Antibiotic; US 5,304,373 (1994)

>  <mol_id> (264)
2136

>  <LD50-mouse-oral> (264)
15200

>  <LD50-mou-ip> (264)
3250

>  <Nickname> (264)
Ampicillin

>  <other Names> (264)
AB-PC, Adobacillin, Amblosin, Amfipen, Aminobenzylpenicillin, D-(-)-alpha-Aminobenzylpenicillin, D-(-)-alpha-Aminopenicillin, 6-(D(-)-alpha-Aminophenylacetamido)penicillanic acid, Amipenix S, Ampi-bol, Ampicillin, D-Ampicillin, D-(-)-Ampicillin, Ampicillin A, Ampicillin acid, Ampicillin anhydrate, Ampicin, Ampimed, Ampipenin, Amplisom, Amplital, Ampy-Penyl, Austrapen, AY-6108, Binotal, Bonapicillin, Britacil, BRL 1341, Copharcilin, Doktacillin, Grampenil, Guicitrina, NSC-528986, Nuvapen, Olin Kid, Omnipen, P-50, Penbristol, Penbritin, Penbritin paediatric, Penbritin syrup, Penbrock, Penicillin, (aminophenylmethyl)-, Penicline, Pentrex, Pentrexl, Pfizerpen A, Ponecil, Principen, Qidamp, Roscillin, Semicillin, SK-Ampicillin, Synpenin, Tokiocillin, Tolomol, Totacillin, Totalciclina, Totapen, Ultrabron, Viccillin, Viccillin S, WY-5103

>  <LD50-mou-iv> (264)
4600

$$$$

csChmFindW11180110282D

141144  0  0  0  0  0  0  0  0999 V2000
   12.4783   12.4010   -0.7203 C   0  0  0  0  0  0  0  0  0  0  0  0
   12.3048   12.7374    1.2444 C   0  0  0  0  0  0  0  0  0  0  0  0
   11.8071   10.7793   -1.4082 O   0  0  0  0  0  0  0  0  0  0  0  0
   13.4491   14.2915    1.8841 C   0  0  0  0  0  0  0  0  0  0  0  0
   14.2861   12.1395   -1.1328 O   0  0  0  0  0  0  0  0  0  0  0  0
   15.2766   14.2352    0.9926 C   0  0  0  0  0  0  0  0  0  0  0  0
   13.6833   14.3477    3.8107 N   0  0  0  0  0  0  0  0  0  0  0  0
   15.2556   13.7141   -0.9432 C   0  0  0  0  0  0  0  0  0  0  0  0
   10.5045   13.0879    1.6580 O   0  0  0  0  0  0  0  0  0  0  0  0
   14.6874   15.8853    4.3751 C   0  0  0  0  0  0  0  0  0  0  0  0
   12.0510   14.2844    4.8100 C   0  0  0  0  0  0  0  0  0  0  0  0
   17.1130   13.3937   -1.6459 C   0  0  0  0  0  0  0  0  0  0  0  0
    9.9968   10.3045   -1.2411 C   0  0  0  0  0  0  0  0  0  0  0  0
   10.5846    7.0054   -0.2449 C   0  0  0  0  0  0  0  0  0  0  0  0
    7.5038    5.7623    0.2984 C   0  0  0  0  0  0  0  0  0  0  0  0
    8.6319   11.5728   -2.2017 C   0  0  0  0  0  0  0  0  0  0  0  0
    3.3051    5.7408   -1.1036 C   0  0  0  0  0  0  0  0  0  0  0  0
    9.4201    5.3257   -0.1609 C   0  0  0  0  0  0  0  0  0  0  0  0
    9.9132    8.2899   -1.7219 C   0  0  0  0  0  0  0  0  0  0  0  0
    2.6772    9.1388   -1.6353 C   0  0  0  0  0  0  0  0  0  0  0  0
    6.3545    4.7657   -0.6576 O   0  0  0  0  0  0  0  0  0  0  0  0
    3.5337    7.6657   -0.5530 C   0  0  0  0  0  0  0  0  0  0  0  0
    3.5555   10.8554   -1.0561 C   0  0  0  0  0  0  0  0  0  0  0  0
   16.3378    7.5415    0.1361 C   0  0  0  0  0  0  0  0  0  0  0  0
    8.2608   18.1620   -1.5416 C   0  0  0  0  0  0  0  0  0  0  0  0
    8.0354   14.7942   -1.8663 C   0  0  0  0  0  0  0  0  0  0  0  0
   13.4947    5.7862    0.5725 C   0  0  0  0  0  0  0  0  0  0  0  0
    7.7729   18.1966   -3.4978 C   0  0  0  0  0  0  0  0  0  0  0  0
   15.4000    5.7725   -0.0538 C   0  0  0  0  0  0  0  0  0  0  0  0
    9.1011   16.3536   -1.1874 C   0  0  0  0  0  0  0  0  0  0  0  0
    7.5744   15.0089   -3.6540 O   0  0  0  0  0  0  0  0  0  0  0  0
   13.3499    6.4968    2.2843 O   0  0  0  0  0  0  0  0  0  0  0  0
    4.5883    4.5496   -0.0673 C   0  0  0  0  0  0  0  0  0  0  0  0
   15.9899    8.2564    1.9709 C   0  0  0  0  0  0  0  0  0  0  0  0
    6.6995   16.6029   -4.0522 C   0  0  0  0  0  0  0  0  0  0  0  0
    9.1745   13.3157   -1.7840 O   0  0  0  0  0  0  0  0  0  0  0  0
   12.3949    6.6877   -0.6362 O   0  0  0  0  0  0  0  0  0  0  0  0
   14.0440    8.2178    2.4258 C   0  0  0  0  0  0  0  0  0  0  0  0
    4.9821   11.7489   -2.1787 C   0  0  0  0  0  0  0  0  0  0  0  0
    6.7881   11.1521   -1.4473 C   0  0  0  0  0  0  0  0  0  0  0  0
    9.4216   19.6220   -1.0289 N   0  0  0  0  0  0  0  0  0  0  0  0
    7.1056    6.7629    1.4715 O   0  0  0  0  0  0  0  0  0  0  0  0
    3.2501   11.3698    0.4217 O   0  0  0  0  0  0  0  0  0  0  0  0
    1.5352    5.2417   -0.6926 O   0  0  0  0  0  0  0  0  0  0  0  0
   15.6271    8.7438   -1.1276 O   0  0  0  0  0  0  0  0  0  0  0  0
    3.0890    7.9203    1.2599 O   0  0  0  0  0  0  0  0  0  0  0  0
    9.3455   18.2775   -4.5308 O   0  0  0  0  0  0  0  0  0  0  0  0
   16.6118   10.0273    2.0255 O   0  0  0  0  0  0  0  0  0  0  0  0
    3.5337    5.5216   -3.0974 C   0  0  0  0  0  0  0  0  0  0  0  0
    8.7939   11.3188   -4.1916 C   0  0  0  0  0  0  0  0  0  0  0  0
    9.9241    3.9255    1.2182 C   0  0  0  0  0  0  0  0  0  0  0  0
   10.8348    7.7902   -3.4733 C   0  0  0  0  0  0  0  0  0  0  0  0
    0.6708    9.2583   -1.4277 C   0  0  0  0  0  0  0  0  0  0  0  0
   18.3084    7.3576   -0.2375 C   0  0  0  0  0  0  0  0  0  0  0  0
    4.1177    2.5822   -0.1853 C   0  0  0  0  0  0  0  0  0  0  0  0
    4.8091   16.6194   -3.3631 C   0  0  0  0  0  0  0  0  0  0  0  0
   13.6751    8.8748    4.2910 C   0  0  0  0  0  0  0  0  0  0  0  0
    4.6686   11.5048   -4.1580 C   0  0  0  0  0  0  0  0  0  0  0  0
    8.6651   21.3359   -1.4420 C   0  0  0  0  0  0  0  0  0  0  0  0
    9.8798   19.5704    0.8339 C   0  0  0  0  0  0  0  0  0  0  0  0
    5.3490    1.3793    0.8721 C   0  0  0  0  0  0  0  0  0  0  0  0
   12.0327   13.5246   -1.5284 H   0  0  0  0  0  0  0  0  0  0  0  0
   12.6847   11.5491    1.9931 H   0  0  0  0  0  0  0  0  0  0  0  0
   12.7832   15.5236    1.4314 H   0  0  0  0  0  0  0  0  0  0  0  0
   16.1193   13.2822    1.7203 H   0  0  0  0  0  0  0  0  0  0  0  0
   15.9348   15.5445    1.0651 H   0  0  0  0  0  0  0  0  0  0  0  0
   14.6368   14.7718   -1.7528 H   0  0  0  0  0  0  0  0  0  0  0  0
   10.2198   12.4886    2.7002 H   0  0  0  0  0  0  0  0  0  0  0  0
   14.8289   15.9172    5.8326 H   0  0  0  0  0  0  0  0  0  0  0  0
   14.0457   17.1302    3.9447 H   0  0  0  0  0  0  0  0  0  0  0  0
   16.0633   15.8506    3.8841 H   0  0  0  0  0  0  0  0  0  0  0  0
   12.2990   14.4588    6.2428 H   0  0  0  0  0  0  0  0  0  0  0  0
   11.4398   12.9594    4.7277 H   0  0  0  0  0  0  0  0  0  0  0  0
   11.1125   15.3233    4.3793 H   0  0  0  0  0  0  0  0  0  0  0  0
   17.9429   14.5940   -1.5161 H   0  0  0  0  0  0  0  0  0  0  0  0
   17.0805   13.0282   -3.0645 H   0  0  0  0  0  0  0  0  0  0  0  0
   17.7773   12.3046   -0.9258 H   0  0  0  0  0  0  0  0  0  0  0  0
    9.6801   10.3572    0.1887 H   0  0  0  0  0  0  0  0  0  0  0  0
   10.4915    7.6791    1.0510 H   0  0  0  0  0  0  0  0  0  0  0  0
    9.4355    4.6897   -1.4850 H   0  0  0  0  0  0  0  0  0  0  0  0
    8.5080    7.9432   -1.9434 H   0  0  0  0  0  0  0  0  0  0  0  0
    2.9630    8.9381   -3.0528 H   0  0  0  0  0  0  0  0  0  0  0  0
    4.9715    7.8995   -0.6491 H   0  0  0  0  0  0  0  0  0  0  0  0
    7.0207   18.2496   -0.7576 H   0  0  0  0  0  0  0  0  0  0  0  0
    6.8706   14.5986   -1.0160 H   0  0  0  0  0  0  0  0  0  0  0  0
   13.0883    4.3882    0.6255 H   0  0  0  0  0  0  0  0  0  0  0  0
    6.9812   19.3818   -3.8393 H   0  0  0  0  0  0  0  0  0  0  0  0
   16.1347    4.7837    0.7475 H   0  0  0  0  0  0  0  0  0  0  0  0
   15.4651    5.3186   -1.4477 H   0  0  0  0  0  0  0  0  0  0  0  0
    9.2849   16.1419    0.2519 H   0  0  0  0  0  0  0  0  0  0  0  0
   10.4369   16.3386   -1.7957 H   0  0  0  0  0  0  0  0  0  0  0  0
    4.5079    4.8800    1.3590 H   0  0  0  0  0  0  0  0  0  0  0  0
   16.7416    7.4922    2.9698 H   0  0  0  0  0  0  0  0  0  0  0  0
    6.5951   16.6287   -5.5221 H   0  0  0  0  0  0  0  0  0  0  0  0
   13.3211    9.0596    1.4774 H   0  0  0  0  0  0  0  0  0  0  0  0
    4.7694   13.1716   -1.9020 H   0  0  0  0  0  0  0  0  0  0  0  0
    6.8205   11.4674   -0.0125 H   0  0  0  0  0  0  0  0  0  0  0  0
    6.6760    9.7022   -1.5319 H   0  0  0  0  0  0  0  0  0  0  0  0
    1.3149    4.1375   -1.2079 H   0  0  0  0  0  0  0  0  0  0  0  0
   15.6348    9.8832   -0.6366 H   0  0  0  0  0  0  0  0  0  0  0  0
    3.2520    9.1288    1.5145 H   0  0  0  0  0  0  0  0  0  0  0  0
    9.0351   18.1461   -5.7217 H   0  0  0  0  0  0  0  0  0  0  0  0
   16.5000   10.4540    3.1812 H   0  0  0  0  0  0  0  0  0  0  0  0
    3.4926    4.1213   -3.5120 H   0  0  0  0  0  0  0  0  0  0  0  0
    4.8032    6.0838   -3.5628 H   0  0  0  0  0  0  0  0  0  0  0  0
    2.4560    6.1729   -3.8430 H   0  0  0  0  0  0  0  0  0  0  0  0
    8.1915   12.3714   -4.9933 H   0  0  0  0  0  0  0  0  0  0  0  0
    8.1400   10.0857   -4.6209 H   0  0  0  0  0  0  0  0  0  0  0  0
   10.1971   11.3109   -4.6080 H   0  0  0  0  0  0  0  0  0  0  0  0
    8.7840    3.0953    1.6057 H   0  0  0  0  0  0  0  0  0  0  0  0
   10.4164    4.5282    2.4578 H   0  0  0  0  0  0  0  0  0  0  0  0
   10.8853    2.9522    0.7029 H   0  0  0  0  0  0  0  0  0  0  0  0
   10.8596    6.3396   -3.6713 H   0  0  0  0  0  0  0  0  0  0  0  0
   12.2187    8.2624   -3.5345 H   0  0  0  0  0  0  0  0  0  0  0  0
   10.1731    8.2788   -4.6737 H   0  0  0  0  0  0  0  0  0  0  0  0
    0.1476   10.4222   -2.1483 H   0  0  0  0  0  0  0  0  0  0  0  0
    0.2599    9.3906   -0.0293 H   0  0  0  0  0  0  0  0  0  0  0  0
    0.0000    8.0825   -1.9826 H   0  0  0  0  0  0  0  0  0  0  0  0
   18.9873    8.6541   -0.1827 H   0  0  0  0  0  0  0  0  0  0  0  0
   18.5399    6.8000   -1.5723 H   0  0  0  0  0  0  0  0  0  0  0  0
   18.9586    6.4742    0.7327 H   0  0  0  0  0  0  0  0  0  0  0  0
    4.1333    2.1279   -1.5786 H   0  0  0  0  0  0  0  0  0  0  0  0
    2.7564    2.3661    0.3204 H   0  0  0  0  0  0  0  0  0  0  0  0
    4.0444   15.4893   -3.8954 H   0  0  0  0  0  0  0  0  0  0  0  0
    4.1110   17.8366   -3.7842 H   0  0  0  0  0  0  0  0  0  0  0  0
    4.7320   16.5652   -1.9046 H   0  0  0  0  0  0  0  0  0  0  0  0
   14.1388   10.2486    4.4924 H   0  0  0  0  0  0  0  0  0  0  0  0
   14.3374    8.0305    5.2878 H   0  0  0  0  0  0  0  0  0  0  0  0
   12.2371    8.8580    4.5748 H   0  0  0  0  0  0  0  0  0  0  0  0
    5.3829   12.4941   -4.9593 H   0  0  0  0  0  0  0  0  0  0  0  0
    3.2563   11.7049   -4.4933 H   0  0  0  0  0  0  0  0  0  0  0  0
    5.0698   10.1768   -4.6224 H   0  0  0  0  0  0  0  0  0  0  0  0
    9.5328   22.4191   -0.9737 H   0  0  0  0  0  0  0  0  0  0  0  0
    7.3442   21.5005   -0.8306 H   0  0  0  0  0  0  0  0  0  0  0  0
    8.5634   21.5438   -2.8856 H   0  0  0  0  0  0  0  0  0  0  0  0
   10.7065   20.7226    1.2010 H   0  0  0  0  0  0  0  0  0  0  0  0
   10.7040   18.4064    1.1558 H   0  0  0  0  0  0  0  0  0  0  0  0
    8.6845   19.5716    1.6812 H   0  0  0  0  0  0  0  0  0  0  0  0
    4.8524    0.0000    0.8829 H   0  0  0  0  0  0  0  0  0  0  0  0
    5.4620    1.8216    2.2639 H   0  0  0  0  0  0  0  0  0  0  0  0
    6.6906    1.3372    0.2882 H   0  0  0  0  0  0  0  0  0  0  0  0
  1  2  1  1  0  0  0
  1  3  1  0  0  0  0
  1  5  1  0  0  0  0
  1 62  1  6  0  0  0
  2  4  1  0  0  0  0
  2  9  1  0  0  0  0
  2 63  1  1  0  0  0
  3 13  1  0  0  0  0
  4  6  1  0  0  0  0
  4  7  1  1  0  0  0
  4 64  1  0  0  0  0
  5  8  1  0  0  0  0
  6  8  1  6  0  0  0
  6 65  1  1  0  0  0
  6 66  1  0  0  0  0
  7 10  1  0  0  0  0
  7 11  1  1  0  0  0
  8 12  1  0  0  0  0
  8 67  1  6  0  0  0
  9 68  1  1  0  0  0
 10 69  1  1  0  0  0
 10 70  1  0  0  0  0
 10 71  1  0  0  0  0
 11 72  1  1  0  0  0
 11 73  1  0  0  0  0
 11 74  1  0  0  0  0
 12 75  1  0  0  0  0
 12 76  1  6  0  0  0
 12 77  1  1  0  0  0
 13 16  1  6  0  0  0
 13 19  1  0  0  0  0
 13 78  1  1  0  0  0
 14 18  1  0  0  0  0
 14 19  1  6  0  0  0
 14 37  1  0  0  0  0
 14 79  1  1  0  0  0
 15 18  1  0  0  0  0
 15 21  1  6  0  0  0
 15 42  2  0  0  0  0
 16 36  1  0  0  0  0
 16 40  1  0  0  0  0
 16 50  1  6  0  0  0
 17 22  1  0  0  0  0
 17 33  1  1  0  0  0
 17 44  1  0  0  0  0
 17 49  1  6  0  0  0
 18 51  1  1  0  0  0
 18 80  1  6  0  0  0
 19 52  1  6  0  0  0
 19 81  1  0  0  0  0
 20 22  1  1  0  0  0
 20 23  1  0  0  0  0
 20 53  1  0  0  0  0
 20 82  1  6  0  0  0
 21 33  1  0  0  0  0
 22 46  1  1  0  0  0
 22 83  1  0  0  0  0
 23 39  1  6  0  0  0
 23 43  2  0  0  0  0
 24 29  1  0  0  0  0
 24 34  1  1  0  0  0
 24 45  1  6  0  0  0
 24 54  1  0  0  0  0
 25 28  1  6  0  0  0
 25 30  1  0  0  0  0
 25 41  1  0  0  0  0
 25 84  1  1  0  0  0
 26 30  1  0  0  0  0
 26 31  1  6  0  0  0
 26 36  1  0  0  0  0
 26 85  1  1  0  0  0
 27 29  1  0  0  0  0
 27 32  1  1  0  0  0
 27 37  1  6  0  0  0
 27 86  1  0  0  0  0
 28 35  1  0  0  0  0
 28 47  1  6  0  0  0
 28 87  1  0  0  0  0
 29 88  1  1  0  0  0
 29 89  1  6  0  0  0
 30 90  1  1  0  0  0
 30 91  1  0  0  0  0
 31 35  1  0  0  0  0
 32 38  1  0  0  0  0
 33 55  1  0  0  0  0
 33 92  1  1  0  0  0
 34 38  1  0  0  0  0
 34 48  1  0  0  0  0
 34 93  1  1  0  0  0
 35 56  1  0  0  0  0
 35 94  1  6  0  0  0
 38 57  1  1  0  0  0
 38 95  1  6  0  0  0
 39 40  1  0  0  0  0
 39 58  1  6  0  0  0
 39 96  1  0  0  0  0
 40 97  1  1  0  0  0
 40 98  1  0  0  0  0
 41 59  1  0  0  0  0
 41 60  1  1  0  0  0
 44 99  1  0  0  0  0
 45100  1  0  0  0  0
 46101  1  0  0  0  0
 47102  1  6  0  0  0
 48103  1  1  0  0  0
 49104  1  0  0  0  0
 49105  1  0  0  0  0
 49106  1  6  0  0  0
 50107  1  6  0  0  0
 50108  1  0  0  0  0
 50109  1  0  0  0  0
 51110  1  0  0  0  0
 51111  1  1  0  0  0
 51112  1  0  0  0  0
 52113  1  0  0  0  0
 52114  1  0  0  0  0
 52115  1  6  0  0  0
 53116  1  6  0  0  0
 53117  1  1  0  0  0
 53118  1  0  0  0  0
 54119  1  0  0  0  0
 54120  1  6  0  0  0
 54121  1  1  0  0  0
 55 61  1  1  0  0  0
 55122  1  6  0  0  0
 55123  1  0  0  0  0
 56124  1  0  0  0  0
 56125  1  0  0  0  0
 56126  1  1  0  0  0
 57127  1  0  0  0  0
 57128  1  1  0  0  0
 57129  1  0  0  0  0
 58130  1  6  0  0  0
 58131  1  0  0  0  0
 58132  1  0  0  0  0
 59133  1  0  0  0  0
 59134  1  0  0  0  0
 59135  1  6  0  0  0
 60136  1  0  0  0  0
 60137  1  0  0  0  0
 60138  1  1  0  0  0
 61139  1  0  0  0  0
 61140  1  1  0  0  0
 61141  1  0  0  0  0
M  END
>  <Formula> (265)
C44H80N2O15

>  <Name> (265)
MEGALOMICIN A

>  <CAS-Nr> (265)
28022-11-9

>  <Compound classification> (265)
AB-Macr

>  <Microorganism> (265)
Staphylococcus aureus

>  <Microorganism type> (265)
DA 2032

>  <Microorganism classification> (265)
Bac+

>  <MIC> (265)
0.6

>  <Method abbreviation> (265)
SDT

>  <Ref-Nr> (265)
7334

>  <Marker> (265)
0

>  <Method> (265)
Serial dilution test; Inoculum size: ---; Medium: yeast-beef broth; pH: 8.0; Incubation-temperature: -- degrees Centigrade; Incubation-time: ---; Solubility enhancer: ---

>  <Reference> (265)
Scherico Ltd.: Megalomicin Complex and Methods for Its Production; GB 1,229,835 (1971)

>  <mol_id> (265)
4862

>  <LD50-mouse-oral> (265)
7500

>  <LD50-mou-ip> (265)
350

>  <MolWeight> (265)
877.12

>  <Nickname> (265)
Megalomicin A

>  <other Names> (265)
Megalomicin, Megalomicin A, Antibiotic W-847-A, Antibiotic XK 41C, Megalomicina, Megalomicine, Megalomicinum, Megalomycin-A, Piperacilina, Piperacillin, Piperacillina, Piperacilline, Piperacillinum

$$$$

csChmFindW11180110282D

141144  0  0  0  0  0  0  0  0999 V2000
   12.4783   12.4010   -0.7203 C   0  0  0  0  0  0  0  0  0  0  0  0
   12.3048   12.7374    1.2444 C   0  0  0  0  0  0  0  0  0  0  0  0
   11.8071   10.7793   -1.4082 O   0  0  0  0  0  0  0  0  0  0  0  0
   13.4491   14.2915    1.8841 C   0  0  0  0  0  0  0  0  0  0  0  0
   14.2861   12.1395   -1.1328 O   0  0  0  0  0  0  0  0  0  0  0  0
   15.2766   14.2352    0.9926 C   0  0  0  0  0  0  0  0  0  0  0  0
   13.6833   14.3477    3.8107 N   0  0  0  0  0  0  0  0  0  0  0  0
   15.2556   13.7141   -0.9432 C   0  0  0  0  0  0  0  0  0  0  0  0
   10.5045   13.0879    1.6580 O   0  0  0  0  0  0  0  0  0  0  0  0
   14.6874   15.8853    4.3751 C   0  0  0  0  0  0  0  0  0  0  0  0
   12.0510   14.2844    4.8100 C   0  0  0  0  0  0  0  0  0  0  0  0
   17.1130   13.3937   -1.6459 C   0  0  0  0  0  0  0  0  0  0  0  0
    9.9968   10.3045   -1.2411 C   0  0  0  0  0  0  0  0  0  0  0  0
   10.5846    7.0054   -0.2449 C   0  0  0  0  0  0  0  0  0  0  0  0
    7.5038    5.7623    0.2984 C   0  0  0  0  0  0  0  0  0  0  0  0
    8.6319   11.5728   -2.2017 C   0  0  0  0  0  0  0  0  0  0  0  0
    3.3051    5.7408   -1.1036 C   0  0  0  0  0  0  0  0  0  0  0  0
    9.4201    5.3257   -0.1609 C   0  0  0  0  0  0  0  0  0  0  0  0
    9.9132    8.2899   -1.7219 C   0  0  0  0  0  0  0  0  0  0  0  0
    2.6772    9.1388   -1.6353 C   0  0  0  0  0  0  0  0  0  0  0  0
    6.3545    4.7657   -0.6576 O   0  0  0  0  0  0  0  0  0  0  0  0
    3.5337    7.6657   -0.5530 C   0  0  0  0  0  0  0  0  0  0  0  0
    3.5555   10.8554   -1.0561 C   0  0  0  0  0  0  0  0  0  0  0  0
   16.3378    7.5415    0.1361 C   0  0  0  0  0  0  0  0  0  0  0  0
    8.2608   18.1620   -1.5416 C   0  0  0  0  0  0  0  0  0  0  0  0
    8.0354   14.7942   -1.8663 C   0  0  0  0  0  0  0  0  0  0  0  0
   13.4947    5.7862    0.5725 C   0  0  0  0  0  0  0  0  0  0  0  0
    7.7729   18.1966   -3.4978 C   0  0  0  0  0  0  0  0  0  0  0  0
   15.4000    5.7725   -0.0538 C   0  0  0  0  0  0  0  0  0  0  0  0
    9.1011   16.3536   -1.1874 C   0  0  0  0  0  0  0  0  0  0  0  0
    7.5744   15.0089   -3.6540 O   0  0  0  0  0  0  0  0  0  0  0  0
   13.3499    6.4968    2.2843 O   0  0  0  0  0  0  0  0  0  0  0  0
    4.5883    4.5496   -0.0673 C   0  0  0  0  0  0  0  0  0  0  0  0
   15.9899    8.2564    1.9709 C   0  0  0  0  0  0  0  0  0  0  0  0
    6.6995   16.6029   -4.0522 C   0  0  0  0  0  0  0  0  0  0  0  0
    9.1745   13.3157   -1.7840 O   0  0  0  0  0  0  0  0  0  0  0  0
   12.3949    6.6877   -0.6362 O   0  0  0  0  0  0  0  0  0  0  0  0
   14.0440    8.2178    2.4258 C   0  0  0  0  0  0  0  0  0  0  0  0
    4.9821   11.7489   -2.1787 C   0  0  0  0  0  0  0  0  0  0  0  0
    6.7881   11.1521   -1.4473 C   0  0  0  0  0  0  0  0  0  0  0  0
    9.4216   19.6220   -1.0289 N   0  0  0  0  0  0  0  0  0  0  0  0
    7.1056    6.7629    1.4715 O   0  0  0  0  0  0  0  0  0  0  0  0
    3.2501   11.3698    0.4217 O   0  0  0  0  0  0  0  0  0  0  0  0
    1.5352    5.2417   -0.6926 O   0  0  0  0  0  0  0  0  0  0  0  0
   15.6271    8.7438   -1.1276 O   0  0  0  0  0  0  0  0  0  0  0  0
    3.0890    7.9203    1.2599 O   0  0  0  0  0  0  0  0  0  0  0  0
    9.3455   18.2775   -4.5308 O   0  0  0  0  0  0  0  0  0  0  0  0
   16.6118   10.0273    2.0255 O   0  0  0  0  0  0  0  0  0  0  0  0
    3.5337    5.5216   -3.0974 C   0  0  0  0  0  0  0  0  0  0  0  0
    8.7939   11.3188   -4.1916 C   0  0  0  0  0  0  0  0  0  0  0  0
    9.9241    3.9255    1.2182 C   0  0  0  0  0  0  0  0  0  0  0  0
   10.8348    7.7902   -3.4733 C   0  0  0  0  0  0  0  0  0  0  0  0
    0.6708    9.2583   -1.4277 C   0  0  0  0  0  0  0  0  0  0  0  0
   18.3084    7.3576   -0.2375 C   0  0  0  0  0  0  0  0  0  0  0  0
    4.1177    2.5822   -0.1853 C   0  0  0  0  0  0  0  0  0  0  0  0
    4.8091   16.6194   -3.3631 C   0  0  0  0  0  0  0  0  0  0  0  0
   13.6751    8.8748    4.2910 C   0  0  0  0  0  0  0  0  0  0  0  0
    4.6686   11.5048   -4.1580 C   0  0  0  0  0  0  0  0  0  0  0  0
    8.6651   21.3359   -1.4420 C   0  0  0  0  0  0  0  0  0  0  0  0
    9.8798   19.5704    0.8339 C   0  0  0  0  0  0  0  0  0  0  0  0
    5.3490    1.3793    0.8721 C   0  0  0  0  0  0  0  0  0  0  0  0
   12.0327   13.5246   -1.5284 H   0  0  0  0  0  0  0  0  0  0  0  0
   12.6847   11.5491    1.9931 H   0  0  0  0  0  0  0  0  0  0  0  0
   12.7832   15.5236    1.4314 H   0  0  0  0  0  0  0  0  0  0  0  0
   16.1193   13.2822    1.7203 H   0  0  0  0  0  0  0  0  0  0  0  0
   15.9348   15.5445    1.0651 H   0  0  0  0  0  0  0  0  0  0  0  0
   14.6368   14.7718   -1.7528 H   0  0  0  0  0  0  0  0  0  0  0  0
   10.2198   12.4886    2.7002 H   0  0  0  0  0  0  0  0  0  0  0  0
   14.8289   15.9172    5.8326 H   0  0  0  0  0  0  0  0  0  0  0  0
   14.0457   17.1302    3.9447 H   0  0  0  0  0  0  0  0  0  0  0  0
   16.0633   15.8506    3.8841 H   0  0  0  0  0  0  0  0  0  0  0  0
   12.2990   14.4588    6.2428 H   0  0  0  0  0  0  0  0  0  0  0  0
   11.4398   12.9594    4.7277 H   0  0  0  0  0  0  0  0  0  0  0  0
   11.1125   15.3233    4.3793 H   0  0  0  0  0  0  0  0  0  0  0  0
   17.9429   14.5940   -1.5161 H   0  0  0  0  0  0  0  0  0  0  0  0
   17.0805   13.0282   -3.0645 H   0  0  0  0  0  0  0  0  0  0  0  0
   17.7773   12.3046   -0.9258 H   0  0  0  0  0  0  0  0  0  0  0  0
    9.6801   10.3572    0.1887 H   0  0  0  0  0  0  0  0  0  0  0  0
   10.4915    7.6791    1.0510 H   0  0  0  0  0  0  0  0  0  0  0  0
    9.4355    4.6897   -1.4850 H   0  0  0  0  0  0  0  0  0  0  0  0
    8.5080    7.9432   -1.9434 H   0  0  0  0  0  0  0  0  0  0  0  0
    2.9630    8.9381   -3.0528 H   0  0  0  0  0  0  0  0  0  0  0  0
    4.9715    7.8995   -0.6491 H   0  0  0  0  0  0  0  0  0  0  0  0
    7.0207   18.2496   -0.7576 H   0  0  0  0  0  0  0  0  0  0  0  0
    6.8706   14.5986   -1.0160 H   0  0  0  0  0  0  0  0  0  0  0  0
   13.0883    4.3882    0.6255 H   0  0  0  0  0  0  0  0  0  0  0  0
    6.9812   19.3818   -3.8393 H   0  0  0  0  0  0  0  0  0  0  0  0
   16.1347    4.7837    0.7475 H   0  0  0  0  0  0  0  0  0  0  0  0
   15.4651    5.3186   -1.4477 H   0  0  0  0  0  0  0  0  0  0  0  0
    9.2849   16.1419    0.2519 H   0  0  0  0  0  0  0  0  0  0  0  0
   10.4369   16.3386   -1.7957 H   0  0  0  0  0  0  0  0  0  0  0  0
    4.5079    4.8800    1.3590 H   0  0  0  0  0  0  0  0  0  0  0  0
   16.7416    7.4922    2.9698 H   0  0  0  0  0  0  0  0  0  0  0  0
    6.5951   16.6287   -5.5221 H   0  0  0  0  0  0  0  0  0  0  0  0
   13.3211    9.0596    1.4774 H   0  0  0  0  0  0  0  0  0  0  0  0
    4.7694   13.1716   -1.9020 H   0  0  0  0  0  0  0  0  0  0  0  0
    6.8205   11.4674   -0.0125 H   0  0  0  0  0  0  0  0  0  0  0  0
    6.6760    9.7022   -1.5319 H   0  0  0  0  0  0  0  0  0  0  0  0
    1.3149    4.1375   -1.2079 H   0  0  0  0  0  0  0  0  0  0  0  0
   15.6348    9.8832   -0.6366 H   0  0  0  0  0  0  0  0  0  0  0  0
    3.2520    9.1288    1.5145 H   0  0  0  0  0  0  0  0  0  0  0  0
    9.0351   18.1461   -5.7217 H   0  0  0  0  0  0  0  0  0  0  0  0
   16.5000   10.4540    3.1812 H   0  0  0  0  0  0  0  0  0  0  0  0
    3.4926    4.1213   -3.5120 H   0  0  0  0  0  0  0  0  0  0  0  0
    4.8032    6.0838   -3.5628 H   0  0  0  0  0  0  0  0  0  0  0  0
    2.4560    6.1729   -3.8430 H   0  0  0  0  0  0  0  0  0  0  0  0
    8.1915   12.3714   -4.9933 H   0  0  0  0  0  0  0  0  0  0  0  0
    8.1400   10.0857   -4.6209 H   0  0  0  0  0  0  0  0  0  0  0  0
   10.1971   11.3109   -4.6080 H   0  0  0  0  0  0  0  0  0  0  0  0
    8.7840    3.0953    1.6057 H   0  0  0  0  0  0  0  0  0  0  0  0
   10.4164    4.5282    2.4578 H   0  0  0  0  0  0  0  0  0  0  0  0
   10.8853    2.9522    0.7029 H   0  0  0  0  0  0  0  0  0  0  0  0
   10.8596    6.3396   -3.6713 H   0  0  0  0  0  0  0  0  0  0  0  0
   12.2187    8.2624   -3.5345 H   0  0  0  0  0  0  0  0  0  0  0  0
   10.1731    8.2788   -4.6737 H   0  0  0  0  0  0  0  0  0  0  0  0
    0.1476   10.4222   -2.1483 H   0  0  0  0  0  0  0  0  0  0  0  0
    0.2599    9.3906   -0.0293 H   0  0  0  0  0  0  0  0  0  0  0  0
    0.0000    8.0825   -1.9826 H   0  0  0  0  0  0  0  0  0  0  0  0
   18.9873    8.6541   -0.1827 H   0  0  0  0  0  0  0  0  0  0  0  0
   18.5399    6.8000   -1.5723 H   0  0  0  0  0  0  0  0  0  0  0  0
   18.9586    6.4742    0.7327 H   0  0  0  0  0  0  0  0  0  0  0  0
    4.1333    2.1279   -1.5786 H   0  0  0  0  0  0  0  0  0  0  0  0
    2.7564    2.3661    0.3204 H   0  0  0  0  0  0  0  0  0  0  0  0
    4.0444   15.4893   -3.8954 H   0  0  0  0  0  0  0  0  0  0  0  0
    4.1110   17.8366   -3.7842 H   0  0  0  0  0  0  0  0  0  0  0  0
    4.7320   16.5652   -1.9046 H   0  0  0  0  0  0  0  0  0  0  0  0
   14.1388   10.2486    4.4924 H   0  0  0  0  0  0  0  0  0  0  0  0
   14.3374    8.0305    5.2878 H   0  0  0  0  0  0  0  0  0  0  0  0
   12.2371    8.8580    4.5748 H   0  0  0  0  0  0  0  0  0  0  0  0
    5.3829   12.4941   -4.9593 H   0  0  0  0  0  0  0  0  0  0  0  0
    3.2563   11.7049   -4.4933 H   0  0  0  0  0  0  0  0  0  0  0  0
    5.0698   10.1768   -4.6224 H   0  0  0  0  0  0  0  0  0  0  0  0
    9.5328   22.4191   -0.9737 H   0  0  0  0  0  0  0  0  0  0  0  0
    7.3442   21.5005   -0.8306 H   0  0  0  0  0  0  0  0  0  0  0  0
    8.5634   21.5438   -2.8856 H   0  0  0  0  0  0  0  0  0  0  0  0
   10.7065   20.7226    1.2010 H   0  0  0  0  0  0  0  0  0  0  0  0
   10.7040   18.4064    1.1558 H   0  0  0  0  0  0  0  0  0  0  0  0
    8.6845   19.5716    1.6812 H   0  0  0  0  0  0  0  0  0  0  0  0
    4.8524    0.0000    0.8829 H   0  0  0  0  0  0  0  0  0  0  0  0
    5.4620    1.8216    2.2639 H   0  0  0  0  0  0  0  0  0  0  0  0
    6.6906    1.3372    0.2882 H   0  0  0  0  0  0  0  0  0  0  0  0
  1  2  1  1  0  0  0
  1  3  1  0  0  0  0
  1  5  1  0  0  0  0
  1 62  1  6  0  0  0
  2  4  1  0  0  0  0
  2  9  1  0  0  0  0
  2 63  1  1  0  0  0
  3 13  1  0  0  0  0
  4  6  1  0  0  0  0
  4  7  1  1  0  0  0
  4 64  1  0  0  0  0
  5  8  1  0  0  0  0
  6  8  1  6  0  0  0
  6 65  1  1  0  0  0
  6 66  1  0  0  0  0
  7 10  1  0  0  0  0
  7 11  1  1  0  0  0
  8 12  1  0  0  0  0
  8 67  1  6  0  0  0
  9 68  1  1  0  0  0
 10 69  1  1  0  0  0
 10 70  1  0  0  0  0
 10 71  1  0  0  0  0
 11 72  1  1  0  0  0
 11 73  1  0  0  0  0
 11 74  1  0  0  0  0
 12 75  1  0  0  0  0
 12 76  1  6  0  0  0
 12 77  1  1  0  0  0
 13 16  1  6  0  0  0
 13 19  1  0  0  0  0
 13 78  1  1  0  0  0
 14 18  1  0  0  0  0
 14 19  1  6  0  0  0
 14 37  1  0  0  0  0
 14 79  1  1  0  0  0
 15 18  1  0  0  0  0
 15 21  1  6  0  0  0
 15 42  2  0  0  0  0
 16 36  1  0  0  0  0
 16 40  1  0  0  0  0
 16 50  1  6  0  0  0
 17 22  1  0  0  0  0
 17 33  1  1  0  0  0
 17 44  1  0  0  0  0
 17 49  1  6  0  0  0
 18 51  1  1  0  0  0
 18 80  1  6  0  0  0
 19 52  1  6  0  0  0
 19 81  1  0  0  0  0
 20 22  1  1  0  0  0
 20 23  1  0  0  0  0
 20 53  1  0  0  0  0
 20 82  1  6  0  0  0
 21 33  1  0  0  0  0
 22 46  1  1  0  0  0
 22 83  1  0  0  0  0
 23 39  1  6  0  0  0
 23 43  2  0  0  0  0
 24 29  1  0  0  0  0
 24 34  1  1  0  0  0
 24 45  1  6  0  0  0
 24 54  1  0  0  0  0
 25 28  1  6  0  0  0
 25 30  1  0  0  0  0
 25 41  1  0  0  0  0
 25 84  1  1  0  0  0
 26 30  1  0  0  0  0
 26 31  1  6  0  0  0
 26 36  1  0  0  0  0
 26 85  1  1  0  0  0
 27 29  1  0  0  0  0
 27 32  1  1  0  0  0
 27 37  1  6  0  0  0
 27 86  1  0  0  0  0
 28 35  1  0  0  0  0
 28 47  1  6  0  0  0
 28 87  1  0  0  0  0
 29 88  1  1  0  0  0
 29 89  1  6  0  0  0
 30 90  1  1  0  0  0
 30 91  1  0  0  0  0
 31 35  1  0  0  0  0
 32 38  1  0  0  0  0
 33 55  1  0  0  0  0
 33 92  1  1  0  0  0
 34 38  1  0  0  0  0
 34 48  1  0  0  0  0
 34 93  1  1  0  0  0
 35 56  1  0  0  0  0
 35 94  1  6  0  0  0
 38 57  1  1  0  0  0
 38 95  1  6  0  0  0
 39 40  1  0  0  0  0
 39 58  1  6  0  0  0
 39 96  1  0  0  0  0
 40 97  1  1  0  0  0
 40 98  1  0  0  0  0
 41 59  1  0  0  0  0
 41 60  1  1  0  0  0
 44 99  1  0  0  0  0
 45100  1  0  0  0  0
 46101  1  0  0  0  0
 47102  1  6  0  0  0
 48103  1  1  0  0  0
 49104  1  0  0  0  0
 49105  1  0  0  0  0
 49106  1  6  0  0  0
 50107  1  6  0  0  0
 50108  1  0  0  0  0
 50109  1  0  0  0  0
 51110  1  0  0  0  0
 51111  1  1  0  0  0
 51112  1  0  0  0  0
 52113  1  0  0  0  0
 52114  1  0  0  0  0
 52115  1  6  0  0  0
 53116  1  6  0  0  0
 53117  1  1  0  0  0
 53118  1  0  0  0  0
 54119  1  0  0  0  0
 54120  1  6  0  0  0
 54121  1  1  0  0  0
 55 61  1  1  0  0  0
 55122  1  6  0  0  0
 55123  1  0  0  0  0
 56124  1  0  0  0  0
 56125  1  0  0  0  0
 56126  1  1  0  0  0
 57127  1  0  0  0  0
 57128  1  1  0  0  0
 57129  1  0  0  0  0
 58130  1  6  0  0  0
 58131  1  0  0  0  0
 58132  1  0  0  0  0
 59133  1  0  0  0  0
 59134  1  0  0  0  0
 59135  1  6  0  0  0
 60136  1  0  0  0  0
 60137  1  0  0  0  0
 60138  1  1  0  0  0
 61139  1  0  0  0  0
 61140  1  1  0  0  0
 61141  1  0  0  0  0
M  END
>  <Formula> (266)
C44H80N2O15

>  <Name> (266)
MEGALOMICIN A

>  <CAS-Nr> (266)
28022-11-9

>  <Compound classification> (266)
AB-Macr

>  <Microorganism> (266)
Staphylococcus aureus

>  <Microorganism type> (266)
DA 2001

>  <Microorganism classification> (266)
Bac+

>  <MIC> (266)
0.6

>  <Method abbreviation> (266)
SDT

>  <Ref-Nr> (266)
7334

>  <Marker> (266)
0

>  <Method> (266)
Serial dilution test; Inoculum size: ---; Medium: yeast-beef broth; pH: 8.0; Incubation-temperature: -- degrees Centigrade; Incubation-time: ---; Solubility enhancer: ---

>  <Reference> (266)
Scherico Ltd.: Megalomicin Complex and Methods for Its Production; GB 1,229,835 (1971)

>  <mol_id> (266)
4862

>  <LD50-mouse-oral> (266)
7500

>  <LD50-mou-ip> (266)
350

>  <MolWeight> (266)
877.12

>  <Nickname> (266)
Megalomicin A

>  <other Names> (266)
Megalomicin, Megalomicin A, Antibiotic W-847-A, Antibiotic XK 41C, Megalomicina, Megalomicine, Megalomicinum, Megalomycin-A, Piperacilina, Piperacillin, Piperacillina, Piperacilline, Piperacillinum

$$$$

csChmFindW11180110282D

141144  0  0  0  0  0  0  0  0999 V2000
   12.4783   12.4010   -0.7203 C   0  0  0  0  0  0  0  0  0  0  0  0
   12.3048   12.7374    1.2444 C   0  0  0  0  0  0  0  0  0  0  0  0
   11.8071   10.7793   -1.4082 O   0  0  0  0  0  0  0  0  0  0  0  0
   13.4491   14.2915    1.8841 C   0  0  0  0  0  0  0  0  0  0  0  0
   14.2861   12.1395   -1.1328 O   0  0  0  0  0  0  0  0  0  0  0  0
   15.2766   14.2352    0.9926 C   0  0  0  0  0  0  0  0  0  0  0  0
   13.6833   14.3477    3.8107 N   0  0  0  0  0  0  0  0  0  0  0  0
   15.2556   13.7141   -0.9432 C   0  0  0  0  0  0  0  0  0  0  0  0
   10.5045   13.0879    1.6580 O   0  0  0  0  0  0  0  0  0  0  0  0
   14.6874   15.8853    4.3751 C   0  0  0  0  0  0  0  0  0  0  0  0
   12.0510   14.2844    4.8100 C   0  0  0  0  0  0  0  0  0  0  0  0
   17.1130   13.3937   -1.6459 C   0  0  0  0  0  0  0  0  0  0  0  0
    9.9968   10.3045   -1.2411 C   0  0  0  0  0  0  0  0  0  0  0  0
   10.5846    7.0054   -0.2449 C   0  0  0  0  0  0  0  0  0  0  0  0
    7.5038    5.7623    0.2984 C   0  0  0  0  0  0  0  0  0  0  0  0
    8.6319   11.5728   -2.2017 C   0  0  0  0  0  0  0  0  0  0  0  0
    3.3051    5.7408   -1.1036 C   0  0  0  0  0  0  0  0  0  0  0  0
    9.4201    5.3257   -0.1609 C   0  0  0  0  0  0  0  0  0  0  0  0
    9.9132    8.2899   -1.7219 C   0  0  0  0  0  0  0  0  0  0  0  0
    2.6772    9.1388   -1.6353 C   0  0  0  0  0  0  0  0  0  0  0  0
    6.3545    4.7657   -0.6576 O   0  0  0  0  0  0  0  0  0  0  0  0
    3.5337    7.6657   -0.5530 C   0  0  0  0  0  0  0  0  0  0  0  0
    3.5555   10.8554   -1.0561 C   0  0  0  0  0  0  0  0  0  0  0  0
   16.3378    7.5415    0.1361 C   0  0  0  0  0  0  0  0  0  0  0  0
    8.2608   18.1620   -1.5416 C   0  0  0  0  0  0  0  0  0  0  0  0
    8.0354   14.7942   -1.8663 C   0  0  0  0  0  0  0  0  0  0  0  0
   13.4947    5.7862    0.5725 C   0  0  0  0  0  0  0  0  0  0  0  0
    7.7729   18.1966   -3.4978 C   0  0  0  0  0  0  0  0  0  0  0  0
   15.4000    5.7725   -0.0538 C   0  0  0  0  0  0  0  0  0  0  0  0
    9.1011   16.3536   -1.1874 C   0  0  0  0  0  0  0  0  0  0  0  0
    7.5744   15.0089   -3.6540 O   0  0  0  0  0  0  0  0  0  0  0  0
   13.3499    6.4968    2.2843 O   0  0  0  0  0  0  0  0  0  0  0  0
    4.5883    4.5496   -0.0673 C   0  0  0  0  0  0  0  0  0  0  0  0
   15.9899    8.2564    1.9709 C   0  0  0  0  0  0  0  0  0  0  0  0
    6.6995   16.6029   -4.0522 C   0  0  0  0  0  0  0  0  0  0  0  0
    9.1745   13.3157   -1.7840 O   0  0  0  0  0  0  0  0  0  0  0  0
   12.3949    6.6877   -0.6362 O   0  0  0  0  0  0  0  0  0  0  0  0
   14.0440    8.2178    2.4258 C   0  0  0  0  0  0  0  0  0  0  0  0
    4.9821   11.7489   -2.1787 C   0  0  0  0  0  0  0  0  0  0  0  0
    6.7881   11.1521   -1.4473 C   0  0  0  0  0  0  0  0  0  0  0  0
    9.4216   19.6220   -1.0289 N   0  0  0  0  0  0  0  0  0  0  0  0
    7.1056    6.7629    1.4715 O   0  0  0  0  0  0  0  0  0  0  0  0
    3.2501   11.3698    0.4217 O   0  0  0  0  0  0  0  0  0  0  0  0
    1.5352    5.2417   -0.6926 O   0  0  0  0  0  0  0  0  0  0  0  0
   15.6271    8.7438   -1.1276 O   0  0  0  0  0  0  0  0  0  0  0  0
    3.0890    7.9203    1.2599 O   0  0  0  0  0  0  0  0  0  0  0  0
    9.3455   18.2775   -4.5308 O   0  0  0  0  0  0  0  0  0  0  0  0
   16.6118   10.0273    2.0255 O   0  0  0  0  0  0  0  0  0  0  0  0
    3.5337    5.5216   -3.0974 C   0  0  0  0  0  0  0  0  0  0  0  0
    8.7939   11.3188   -4.1916 C   0  0  0  0  0  0  0  0  0  0  0  0
    9.9241    3.9255    1.2182 C   0  0  0  0  0  0  0  0  0  0  0  0
   10.8348    7.7902   -3.4733 C   0  0  0  0  0  0  0  0  0  0  0  0
    0.6708    9.2583   -1.4277 C   0  0  0  0  0  0  0  0  0  0  0  0
   18.3084    7.3576   -0.2375 C   0  0  0  0  0  0  0  0  0  0  0  0
    4.1177    2.5822   -0.1853 C   0  0  0  0  0  0  0  0  0  0  0  0
    4.8091   16.6194   -3.3631 C   0  0  0  0  0  0  0  0  0  0  0  0
   13.6751    8.8748    4.2910 C   0  0  0  0  0  0  0  0  0  0  0  0
    4.6686   11.5048   -4.1580 C   0  0  0  0  0  0  0  0  0  0  0  0
    8.6651   21.3359   -1.4420 C   0  0  0  0  0  0  0  0  0  0  0  0
    9.8798   19.5704    0.8339 C   0  0  0  0  0  0  0  0  0  0  0  0
    5.3490    1.3793    0.8721 C   0  0  0  0  0  0  0  0  0  0  0  0
   12.0327   13.5246   -1.5284 H   0  0  0  0  0  0  0  0  0  0  0  0
   12.6847   11.5491    1.9931 H   0  0  0  0  0  0  0  0  0  0  0  0
   12.7832   15.5236    1.4314 H   0  0  0  0  0  0  0  0  0  0  0  0
   16.1193   13.2822    1.7203 H   0  0  0  0  0  0  0  0  0  0  0  0
   15.9348   15.5445    1.0651 H   0  0  0  0  0  0  0  0  0  0  0  0
   14.6368   14.7718   -1.7528 H   0  0  0  0  0  0  0  0  0  0  0  0
   10.2198   12.4886    2.7002 H   0  0  0  0  0  0  0  0  0  0  0  0
   14.8289   15.9172    5.8326 H   0  0  0  0  0  0  0  0  0  0  0  0
   14.0457   17.1302    3.9447 H   0  0  0  0  0  0  0  0  0  0  0  0
   16.0633   15.8506    3.8841 H   0  0  0  0  0  0  0  0  0  0  0  0
   12.2990   14.4588    6.2428 H   0  0  0  0  0  0  0  0  0  0  0  0
   11.4398   12.9594    4.7277 H   0  0  0  0  0  0  0  0  0  0  0  0
   11.1125   15.3233    4.3793 H   0  0  0  0  0  0  0  0  0  0  0  0
   17.9429   14.5940   -1.5161 H   0  0  0  0  0  0  0  0  0  0  0  0
   17.0805   13.0282   -3.0645 H   0  0  0  0  0  0  0  0  0  0  0  0
   17.7773   12.3046   -0.9258 H   0  0  0  0  0  0  0  0  0  0  0  0
    9.6801   10.3572    0.1887 H   0  0  0  0  0  0  0  0  0  0  0  0
   10.4915    7.6791    1.0510 H   0  0  0  0  0  0  0  0  0  0  0  0
    9.4355    4.6897   -1.4850 H   0  0  0  0  0  0  0  0  0  0  0  0
    8.5080    7.9432   -1.9434 H   0  0  0  0  0  0  0  0  0  0  0  0
    2.9630    8.9381   -3.0528 H   0  0  0  0  0  0  0  0  0  0  0  0
    4.9715    7.8995   -0.6491 H   0  0  0  0  0  0  0  0  0  0  0  0
    7.0207   18.2496   -0.7576 H   0  0  0  0  0  0  0  0  0  0  0  0
    6.8706   14.5986   -1.0160 H   0  0  0  0  0  0  0  0  0  0  0  0
   13.0883    4.3882    0.6255 H   0  0  0  0  0  0  0  0  0  0  0  0
    6.9812   19.3818   -3.8393 H   0  0  0  0  0  0  0  0  0  0  0  0
   16.1347    4.7837    0.7475 H   0  0  0  0  0  0  0  0  0  0  0  0
   15.4651    5.3186   -1.4477 H   0  0  0  0  0  0  0  0  0  0  0  0
    9.2849   16.1419    0.2519 H   0  0  0  0  0  0  0  0  0  0  0  0
   10.4369   16.3386   -1.7957 H   0  0  0  0  0  0  0  0  0  0  0  0
    4.5079    4.8800    1.3590 H   0  0  0  0  0  0  0  0  0  0  0  0
   16.7416    7.4922    2.9698 H   0  0  0  0  0  0  0  0  0  0  0  0
    6.5951   16.6287   -5.5221 H   0  0  0  0  0  0  0  0  0  0  0  0
   13.3211    9.0596    1.4774 H   0  0  0  0  0  0  0  0  0  0  0  0
    4.7694   13.1716   -1.9020 H   0  0  0  0  0  0  0  0  0  0  0  0
    6.8205   11.4674   -0.0125 H   0  0  0  0  0  0  0  0  0  0  0  0
    6.6760    9.7022   -1.5319 H   0  0  0  0  0  0  0  0  0  0  0  0
    1.3149    4.1375   -1.2079 H   0  0  0  0  0  0  0  0  0  0  0  0
   15.6348    9.8832   -0.6366 H   0  0  0  0  0  0  0  0  0  0  0  0
    3.2520    9.1288    1.5145 H   0  0  0  0  0  0  0  0  0  0  0  0
    9.0351   18.1461   -5.7217 H   0  0  0  0  0  0  0  0  0  0  0  0
   16.5000   10.4540    3.1812 H   0  0  0  0  0  0  0  0  0  0  0  0
    3.4926    4.1213   -3.5120 H   0  0  0  0  0  0  0  0  0  0  0  0
    4.8032    6.0838   -3.5628 H   0  0  0  0  0  0  0  0  0  0  0  0
    2.4560    6.1729   -3.8430 H   0  0  0  0  0  0  0  0  0  0  0  0
    8.1915   12.3714   -4.9933 H   0  0  0  0  0  0  0  0  0  0  0  0
    8.1400   10.0857   -4.6209 H   0  0  0  0  0  0  0  0  0  0  0  0
   10.1971   11.3109   -4.6080 H   0  0  0  0  0  0  0  0  0  0  0  0
    8.7840    3.0953    1.6057 H   0  0  0  0  0  0  0  0  0  0  0  0
   10.4164    4.5282    2.4578 H   0  0  0  0  0  0  0  0  0  0  0  0
   10.8853    2.9522    0.7029 H   0  0  0  0  0  0  0  0  0  0  0  0
   10.8596    6.3396   -3.6713 H   0  0  0  0  0  0  0  0  0  0  0  0
   12.2187    8.2624   -3.5345 H   0  0  0  0  0  0  0  0  0  0  0  0
   10.1731    8.2788   -4.6737 H   0  0  0  0  0  0  0  0  0  0  0  0
    0.1476   10.4222   -2.1483 H   0  0  0  0  0  0  0  0  0  0  0  0
    0.2599    9.3906   -0.0293 H   0  0  0  0  0  0  0  0  0  0  0  0
    0.0000    8.0825   -1.9826 H   0  0  0  0  0  0  0  0  0  0  0  0
   18.9873    8.6541   -0.1827 H   0  0  0  0  0  0  0  0  0  0  0  0
   18.5399    6.8000   -1.5723 H   0  0  0  0  0  0  0  0  0  0  0  0
   18.9586    6.4742    0.7327 H   0  0  0  0  0  0  0  0  0  0  0  0
    4.1333    2.1279   -1.5786 H   0  0  0  0  0  0  0  0  0  0  0  0
    2.7564    2.3661    0.3204 H   0  0  0  0  0  0  0  0  0  0  0  0
    4.0444   15.4893   -3.8954 H   0  0  0  0  0  0  0  0  0  0  0  0
    4.1110   17.8366   -3.7842 H   0  0  0  0  0  0  0  0  0  0  0  0
    4.7320   16.5652   -1.9046 H   0  0  0  0  0  0  0  0  0  0  0  0
   14.1388   10.2486    4.4924 H   0  0  0  0  0  0  0  0  0  0  0  0
   14.3374    8.0305    5.2878 H   0  0  0  0  0  0  0  0  0  0  0  0
   12.2371    8.8580    4.5748 H   0  0  0  0  0  0  0  0  0  0  0  0
    5.3829   12.4941   -4.9593 H   0  0  0  0  0  0  0  0  0  0  0  0
    3.2563   11.7049   -4.4933 H   0  0  0  0  0  0  0  0  0  0  0  0
    5.0698   10.1768   -4.6224 H   0  0  0  0  0  0  0  0  0  0  0  0
    9.5328   22.4191   -0.9737 H   0  0  0  0  0  0  0  0  0  0  0  0
    7.3442   21.5005   -0.8306 H   0  0  0  0  0  0  0  0  0  0  0  0
    8.5634   21.5438   -2.8856 H   0  0  0  0  0  0  0  0  0  0  0  0
   10.7065   20.7226    1.2010 H   0  0  0  0  0  0  0  0  0  0  0  0
   10.7040   18.4064    1.1558 H   0  0  0  0  0  0  0  0  0  0  0  0
    8.6845   19.5716    1.6812 H   0  0  0  0  0  0  0  0  0  0  0  0
    4.8524    0.0000    0.8829 H   0  0  0  0  0  0  0  0  0  0  0  0
    5.4620    1.8216    2.2639 H   0  0  0  0  0  0  0  0  0  0  0  0
    6.6906    1.3372    0.2882 H   0  0  0  0  0  0  0  0  0  0  0  0
  1  2  1  1  0  0  0
  1  3  1  0  0  0  0
  1  5  1  0  0  0  0
  1 62  1  6  0  0  0
  2  4  1  0  0  0  0
  2  9  1  0  0  0  0
  2 63  1  1  0  0  0
  3 13  1  0  0  0  0
  4  6  1  0  0  0  0
  4  7  1  1  0  0  0
  4 64  1  0  0  0  0
  5  8  1  0  0  0  0
  6  8  1  6  0  0  0
  6 65  1  1  0  0  0
  6 66  1  0  0  0  0
  7 10  1  0  0  0  0
  7 11  1  1  0  0  0
  8 12  1  0  0  0  0
  8 67  1  6  0  0  0
  9 68  1  1  0  0  0
 10 69  1  1  0  0  0
 10 70  1  0  0  0  0
 10 71  1  0  0  0  0
 11 72  1  1  0  0  0
 11 73  1  0  0  0  0
 11 74  1  0  0  0  0
 12 75  1  0  0  0  0
 12 76  1  6  0  0  0
 12 77  1  1  0  0  0
 13 16  1  6  0  0  0
 13 19  1  0  0  0  0
 13 78  1  1  0  0  0
 14 18  1  0  0  0  0
 14 19  1  6  0  0  0
 14 37  1  0  0  0  0
 14 79  1  1  0  0  0
 15 18  1  0  0  0  0
 15 21  1  6  0  0  0
 15 42  2  0  0  0  0
 16 36  1  0  0  0  0
 16 40  1  0  0  0  0
 16 50  1  6  0  0  0
 17 22  1  0  0  0  0
 17 33  1  1  0  0  0
 17 44  1  0  0  0  0
 17 49  1  6  0  0  0
 18 51  1  1  0  0  0
 18 80  1  6  0  0  0
 19 52  1  6  0  0  0
 19 81  1  0  0  0  0
 20 22  1  1  0  0  0
 20 23  1  0  0  0  0
 20 53  1  0  0  0  0
 20 82  1  6  0  0  0
 21 33  1  0  0  0  0
 22 46  1  1  0  0  0
 22 83  1  0  0  0  0
 23 39  1  6  0  0  0
 23 43  2  0  0  0  0
 24 29  1  0  0  0  0
 24 34  1  1  0  0  0
 24 45  1  6  0  0  0
 24 54  1  0  0  0  0
 25 28  1  6  0  0  0
 25 30  1  0  0  0  0
 25 41  1  0  0  0  0
 25 84  1  1  0  0  0
 26 30  1  0  0  0  0
 26 31  1  6  0  0  0
 26 36  1  0  0  0  0
 26 85  1  1  0  0  0
 27 29  1  0  0  0  0
 27 32  1  1  0  0  0
 27 37  1  6  0  0  0
 27 86  1  0  0  0  0
 28 35  1  0  0  0  0
 28 47  1  6  0  0  0
 28 87  1  0  0  0  0
 29 88  1  1  0  0  0
 29 89  1  6  0  0  0
 30 90  1  1  0  0  0
 30 91  1  0  0  0  0
 31 35  1  0  0  0  0
 32 38  1  0  0  0  0
 33 55  1  0  0  0  0
 33 92  1  1  0  0  0
 34 38  1  0  0  0  0
 34 48  1  0  0  0  0
 34 93  1  1  0  0  0
 35 56  1  0  0  0  0
 35 94  1  6  0  0  0
 38 57  1  1  0  0  0
 38 95  1  6  0  0  0
 39 40  1  0  0  0  0
 39 58  1  6  0  0  0
 39 96  1  0  0  0  0
 40 97  1  1  0  0  0
 40 98  1  0  0  0  0
 41 59  1  0  0  0  0
 41 60  1  1  0  0  0
 44 99  1  0  0  0  0
 45100  1  0  0  0  0
 46101  1  0  0  0  0
 47102  1  6  0  0  0
 48103  1  1  0  0  0
 49104  1  0  0  0  0
 49105  1  0  0  0  0
 49106  1  6  0  0  0
 50107  1  6  0  0  0
 50108  1  0  0  0  0
 50109  1  0  0  0  0
 51110  1  0  0  0  0
 51111  1  1  0  0  0
 51112  1  0  0  0  0
 52113  1  0  0  0  0
 52114  1  0  0  0  0
 52115  1  6  0  0  0
 53116  1  6  0  0  0
 53117  1  1  0  0  0
 53118  1  0  0  0  0
 54119  1  0  0  0  0
 54120  1  6  0  0  0
 54121  1  1  0  0  0
 55 61  1  1  0  0  0
 55122  1  6  0  0  0
 55123  1  0  0  0  0
 56124  1  0  0  0  0
 56125  1  0  0  0  0
 56126  1  1  0  0  0
 57127  1  0  0  0  0
 57128  1  1  0  0  0
 57129  1  0  0  0  0
 58130  1  6  0  0  0
 58131  1  0  0  0  0
 58132  1  0  0  0  0
 59133  1  0  0  0  0
 59134  1  0  0  0  0
 59135  1  6  0  0  0
 60136  1  0  0  0  0
 60137  1  0  0  0  0
 60138  1  1  0  0  0
 61139  1  0  0  0  0
 61140  1  1  0  0  0
 61141  1  0  0  0  0
M  END
>  <Formula> (267)
C44H80N2O15

>  <Name> (267)
MEGALOMICIN A

>  <CAS-Nr> (267)
28022-11-9

>  <Compound classification> (267)
AB-Macr

>  <Microorganism> (267)
Staphylococcus aureus

>  <Microorganism type> (267)
DA 2003

>  <Microorganism classification> (267)
Bac+

>  <MIC> (267)
0.6

>  <Method abbreviation> (267)
SDT

>  <Ref-Nr> (267)
7334

>  <Marker> (267)
0

>  <Method> (267)
Serial dilution test; Inoculum size: ---; Medium: yeast-beef broth; pH: 8.0; Incubation-temperature: -- degrees Centigrade; Incubation-time: ---; Solubility enhancer: ---

>  <Reference> (267)
Scherico Ltd.: Megalomicin Complex and Methods for Its Production; GB 1,229,835 (1971)

>  <mol_id> (267)
4862

>  <LD50-mouse-oral> (267)
7500

>  <LD50-mou-ip> (267)
350

>  <MolWeight> (267)
877.12

>  <Nickname> (267)
Megalomicin A

>  <other Names> (267)
Megalomicin, Megalomicin A, Antibiotic W-847-A, Antibiotic XK 41C, Megalomicina, Megalomicine, Megalomicinum, Megalomycin-A, Piperacilina, Piperacillin, Piperacillina, Piperacilline, Piperacillinum

$$$$

csChmFindW11180110282D

141144  0  0  0  0  0  0  0  0999 V2000
   12.4783   12.4010   -0.7203 C   0  0  0  0  0  0  0  0  0  0  0  0
   12.3048   12.7374    1.2444 C   0  0  0  0  0  0  0  0  0  0  0  0
   11.8071   10.7793   -1.4082 O   0  0  0  0  0  0  0  0  0  0  0  0
   13.4491   14.2915    1.8841 C   0  0  0  0  0  0  0  0  0  0  0  0
   14.2861   12.1395   -1.1328 O   0  0  0  0  0  0  0  0  0  0  0  0
   15.2766   14.2352    0.9926 C   0  0  0  0  0  0  0  0  0  0  0  0
   13.6833   14.3477    3.8107 N   0  0  0  0  0  0  0  0  0  0  0  0
   15.2556   13.7141   -0.9432 C   0  0  0  0  0  0  0  0  0  0  0  0
   10.5045   13.0879    1.6580 O   0  0  0  0  0  0  0  0  0  0  0  0
   14.6874   15.8853    4.3751 C   0  0  0  0  0  0  0  0  0  0  0  0
   12.0510   14.2844    4.8100 C   0  0  0  0  0  0  0  0  0  0  0  0
   17.1130   13.3937   -1.6459 C   0  0  0  0  0  0  0  0  0  0  0  0
    9.9968   10.3045   -1.2411 C   0  0  0  0  0  0  0  0  0  0  0  0
   10.5846    7.0054   -0.2449 C   0  0  0  0  0  0  0  0  0  0  0  0
    7.5038    5.7623    0.2984 C   0  0  0  0  0  0  0  0  0  0  0  0
    8.6319   11.5728   -2.2017 C   0  0  0  0  0  0  0  0  0  0  0  0
    3.3051    5.7408   -1.1036 C   0  0  0  0  0  0  0  0  0  0  0  0
    9.4201    5.3257   -0.1609 C   0  0  0  0  0  0  0  0  0  0  0  0
    9.9132    8.2899   -1.7219 C   0  0  0  0  0  0  0  0  0  0  0  0
    2.6772    9.1388   -1.6353 C   0  0  0  0  0  0  0  0  0  0  0  0
    6.3545    4.7657   -0.6576 O   0  0  0  0  0  0  0  0  0  0  0  0
    3.5337    7.6657   -0.5530 C   0  0  0  0  0  0  0  0  0  0  0  0
    3.5555   10.8554   -1.0561 C   0  0  0  0  0  0  0  0  0  0  0  0
   16.3378    7.5415    0.1361 C   0  0  0  0  0  0  0  0  0  0  0  0
    8.2608   18.1620   -1.5416 C   0  0  0  0  0  0  0  0  0  0  0  0
    8.0354   14.7942   -1.8663 C   0  0  0  0  0  0  0  0  0  0  0  0
   13.4947    5.7862    0.5725 C   0  0  0  0  0  0  0  0  0  0  0  0
    7.7729   18.1966   -3.4978 C   0  0  0  0  0  0  0  0  0  0  0  0
   15.4000    5.7725   -0.0538 C   0  0  0  0  0  0  0  0  0  0  0  0
    9.1011   16.3536   -1.1874 C   0  0  0  0  0  0  0  0  0  0  0  0
    7.5744   15.0089   -3.6540 O   0  0  0  0  0  0  0  0  0  0  0  0
   13.3499    6.4968    2.2843 O   0  0  0  0  0  0  0  0  0  0  0  0
    4.5883    4.5496   -0.0673 C   0  0  0  0  0  0  0  0  0  0  0  0
   15.9899    8.2564    1.9709 C   0  0  0  0  0  0  0  0  0  0  0  0
    6.6995   16.6029   -4.0522 C   0  0  0  0  0  0  0  0  0  0  0  0
    9.1745   13.3157   -1.7840 O   0  0  0  0  0  0  0  0  0  0  0  0
   12.3949    6.6877   -0.6362 O   0  0  0  0  0  0  0  0  0  0  0  0
   14.0440    8.2178    2.4258 C   0  0  0  0  0  0  0  0  0  0  0  0
    4.9821   11.7489   -2.1787 C   0  0  0  0  0  0  0  0  0  0  0  0
    6.7881   11.1521   -1.4473 C   0  0  0  0  0  0  0  0  0  0  0  0
    9.4216   19.6220   -1.0289 N   0  0  0  0  0  0  0  0  0  0  0  0
    7.1056    6.7629    1.4715 O   0  0  0  0  0  0  0  0  0  0  0  0
    3.2501   11.3698    0.4217 O   0  0  0  0  0  0  0  0  0  0  0  0
    1.5352    5.2417   -0.6926 O   0  0  0  0  0  0  0  0  0  0  0  0
   15.6271    8.7438   -1.1276 O   0  0  0  0  0  0  0  0  0  0  0  0
    3.0890    7.9203    1.2599 O   0  0  0  0  0  0  0  0  0  0  0  0
    9.3455   18.2775   -4.5308 O   0  0  0  0  0  0  0  0  0  0  0  0
   16.6118   10.0273    2.0255 O   0  0  0  0  0  0  0  0  0  0  0  0
    3.5337    5.5216   -3.0974 C   0  0  0  0  0  0  0  0  0  0  0  0
    8.7939   11.3188   -4.1916 C   0  0  0  0  0  0  0  0  0  0  0  0
    9.9241    3.9255    1.2182 C   0  0  0  0  0  0  0  0  0  0  0  0
   10.8348    7.7902   -3.4733 C   0  0  0  0  0  0  0  0  0  0  0  0
    0.6708    9.2583   -1.4277 C   0  0  0  0  0  0  0  0  0  0  0  0
   18.3084    7.3576   -0.2375 C   0  0  0  0  0  0  0  0  0  0  0  0
    4.1177    2.5822   -0.1853 C   0  0  0  0  0  0  0  0  0  0  0  0
    4.8091   16.6194   -3.3631 C   0  0  0  0  0  0  0  0  0  0  0  0
   13.6751    8.8748    4.2910 C   0  0  0  0  0  0  0  0  0  0  0  0
    4.6686   11.5048   -4.1580 C   0  0  0  0  0  0  0  0  0  0  0  0
    8.6651   21.3359   -1.4420 C   0  0  0  0  0  0  0  0  0  0  0  0
    9.8798   19.5704    0.8339 C   0  0  0  0  0  0  0  0  0  0  0  0
    5.3490    1.3793    0.8721 C   0  0  0  0  0  0  0  0  0  0  0  0
   12.0327   13.5246   -1.5284 H   0  0  0  0  0  0  0  0  0  0  0  0
   12.6847   11.5491    1.9931 H   0  0  0  0  0  0  0  0  0  0  0  0
   12.7832   15.5236    1.4314 H   0  0  0  0  0  0  0  0  0  0  0  0
   16.1193   13.2822    1.7203 H   0  0  0  0  0  0  0  0  0  0  0  0
   15.9348   15.5445    1.0651 H   0  0  0  0  0  0  0  0  0  0  0  0
   14.6368   14.7718   -1.7528 H   0  0  0  0  0  0  0  0  0  0  0  0
   10.2198   12.4886    2.7002 H   0  0  0  0  0  0  0  0  0  0  0  0
   14.8289   15.9172    5.8326 H   0  0  0  0  0  0  0  0  0  0  0  0
   14.0457   17.1302    3.9447 H   0  0  0  0  0  0  0  0  0  0  0  0
   16.0633   15.8506    3.8841 H   0  0  0  0  0  0  0  0  0  0  0  0
   12.2990   14.4588    6.2428 H   0  0  0  0  0  0  0  0  0  0  0  0
   11.4398   12.9594    4.7277 H   0  0  0  0  0  0  0  0  0  0  0  0
   11.1125   15.3233    4.3793 H   0  0  0  0  0  0  0  0  0  0  0  0
   17.9429   14.5940   -1.5161 H   0  0  0  0  0  0  0  0  0  0  0  0
   17.0805   13.0282   -3.0645 H   0  0  0  0  0  0  0  0  0  0  0  0
   17.7773   12.3046   -0.9258 H   0  0  0  0  0  0  0  0  0  0  0  0
    9.6801   10.3572    0.1887 H   0  0  0  0  0  0  0  0  0  0  0  0
   10.4915    7.6791    1.0510 H   0  0  0  0  0  0  0  0  0  0  0  0
    9.4355    4.6897   -1.4850 H   0  0  0  0  0  0  0  0  0  0  0  0
    8.5080    7.9432   -1.9434 H   0  0  0  0  0  0  0  0  0  0  0  0
    2.9630    8.9381   -3.0528 H   0  0  0  0  0  0  0  0  0  0  0  0
    4.9715    7.8995   -0.6491 H   0  0  0  0  0  0  0  0  0  0  0  0
    7.0207   18.2496   -0.7576 H   0  0  0  0  0  0  0  0  0  0  0  0
    6.8706   14.5986   -1.0160 H   0  0  0  0  0  0  0  0  0  0  0  0
   13.0883    4.3882    0.6255 H   0  0  0  0  0  0  0  0  0  0  0  0
    6.9812   19.3818   -3.8393 H   0  0  0  0  0  0  0  0  0  0  0  0
   16.1347    4.7837    0.7475 H   0  0  0  0  0  0  0  0  0  0  0  0
   15.4651    5.3186   -1.4477 H   0  0  0  0  0  0  0  0  0  0  0  0
    9.2849   16.1419    0.2519 H   0  0  0  0  0  0  0  0  0  0  0  0
   10.4369   16.3386   -1.7957 H   0  0  0  0  0  0  0  0  0  0  0  0
    4.5079    4.8800    1.3590 H   0  0  0  0  0  0  0  0  0  0  0  0
   16.7416    7.4922    2.9698 H   0  0  0  0  0  0  0  0  0  0  0  0
    6.5951   16.6287   -5.5221 H   0  0  0  0  0  0  0  0  0  0  0  0
   13.3211    9.0596    1.4774 H   0  0  0  0  0  0  0  0  0  0  0  0
    4.7694   13.1716   -1.9020 H   0  0  0  0  0  0  0  0  0  0  0  0
    6.8205   11.4674   -0.0125 H   0  0  0  0  0  0  0  0  0  0  0  0
    6.6760    9.7022   -1.5319 H   0  0  0  0  0  0  0  0  0  0  0  0
    1.3149    4.1375   -1.2079 H   0  0  0  0  0  0  0  0  0  0  0  0
   15.6348    9.8832   -0.6366 H   0  0  0  0  0  0  0  0  0  0  0  0
    3.2520    9.1288    1.5145 H   0  0  0  0  0  0  0  0  0  0  0  0
    9.0351   18.1461   -5.7217 H   0  0  0  0  0  0  0  0  0  0  0  0
   16.5000   10.4540    3.1812 H   0  0  0  0  0  0  0  0  0  0  0  0
    3.4926    4.1213   -3.5120 H   0  0  0  0  0  0  0  0  0  0  0  0
    4.8032    6.0838   -3.5628 H   0  0  0  0  0  0  0  0  0  0  0  0
    2.4560    6.1729   -3.8430 H   0  0  0  0  0  0  0  0  0  0  0  0
    8.1915   12.3714   -4.9933 H   0  0  0  0  0  0  0  0  0  0  0  0
    8.1400   10.0857   -4.6209 H   0  0  0  0  0  0  0  0  0  0  0  0
   10.1971   11.3109   -4.6080 H   0  0  0  0  0  0  0  0  0  0  0  0
    8.7840    3.0953    1.6057 H   0  0  0  0  0  0  0  0  0  0  0  0
   10.4164    4.5282    2.4578 H   0  0  0  0  0  0  0  0  0  0  0  0
   10.8853    2.9522    0.7029 H   0  0  0  0  0  0  0  0  0  0  0  0
   10.8596    6.3396   -3.6713 H   0  0  0  0  0  0  0  0  0  0  0  0
   12.2187    8.2624   -3.5345 H   0  0  0  0  0  0  0  0  0  0  0  0
   10.1731    8.2788   -4.6737 H   0  0  0  0  0  0  0  0  0  0  0  0
    0.1476   10.4222   -2.1483 H   0  0  0  0  0  0  0  0  0  0  0  0
    0.2599    9.3906   -0.0293 H   0  0  0  0  0  0  0  0  0  0  0  0
    0.0000    8.0825   -1.9826 H   0  0  0  0  0  0  0  0  0  0  0  0
   18.9873    8.6541   -0.1827 H   0  0  0  0  0  0  0  0  0  0  0  0
   18.5399    6.8000   -1.5723 H   0  0  0  0  0  0  0  0  0  0  0  0
   18.9586    6.4742    0.7327 H   0  0  0  0  0  0  0  0  0  0  0  0
    4.1333    2.1279   -1.5786 H   0  0  0  0  0  0  0  0  0  0  0  0
    2.7564    2.3661    0.3204 H   0  0  0  0  0  0  0  0  0  0  0  0
    4.0444   15.4893   -3.8954 H   0  0  0  0  0  0  0  0  0  0  0  0
    4.1110   17.8366   -3.7842 H   0  0  0  0  0  0  0  0  0  0  0  0
    4.7320   16.5652   -1.9046 H   0  0  0  0  0  0  0  0  0  0  0  0
   14.1388   10.2486    4.4924 H   0  0  0  0  0  0  0  0  0  0  0  0
   14.3374    8.0305    5.2878 H   0  0  0  0  0  0  0  0  0  0  0  0
   12.2371    8.8580    4.5748 H   0  0  0  0  0  0  0  0  0  0  0  0
    5.3829   12.4941   -4.9593 H   0  0  0  0  0  0  0  0  0  0  0  0
    3.2563   11.7049   -4.4933 H   0  0  0  0  0  0  0  0  0  0  0  0
    5.0698   10.1768   -4.6224 H   0  0  0  0  0  0  0  0  0  0  0  0
    9.5328   22.4191   -0.9737 H   0  0  0  0  0  0  0  0  0  0  0  0
    7.3442   21.5005   -0.8306 H   0  0  0  0  0  0  0  0  0  0  0  0
    8.5634   21.5438   -2.8856 H   0  0  0  0  0  0  0  0  0  0  0  0
   10.7065   20.7226    1.2010 H   0  0  0  0  0  0  0  0  0  0  0  0
   10.7040   18.4064    1.1558 H   0  0  0  0  0  0  0  0  0  0  0  0
    8.6845   19.5716    1.6812 H   0  0  0  0  0  0  0  0  0  0  0  0
    4.8524    0.0000    0.8829 H   0  0  0  0  0  0  0  0  0  0  0  0
    5.4620    1.8216    2.2639 H   0  0  0  0  0  0  0  0  0  0  0  0
    6.6906    1.3372    0.2882 H   0  0  0  0  0  0  0  0  0  0  0  0
  1  2  1  1  0  0  0
  1  3  1  0  0  0  0
  1  5  1  0  0  0  0
  1 62  1  6  0  0  0
  2  4  1  0  0  0  0
  2  9  1  0  0  0  0
  2 63  1  1  0  0  0
  3 13  1  0  0  0  0
  4  6  1  0  0  0  0
  4  7  1  1  0  0  0
  4 64  1  0  0  0  0
  5  8  1  0  0  0  0
  6  8  1  6  0  0  0
  6 65  1  1  0  0  0
  6 66  1  0  0  0  0
  7 10  1  0  0  0  0
  7 11  1  1  0  0  0
  8 12  1  0  0  0  0
  8 67  1  6  0  0  0
  9 68  1  1  0  0  0
 10 69  1  1  0  0  0
 10 70  1  0  0  0  0
 10 71  1  0  0  0  0
 11 72  1  1  0  0  0
 11 73  1  0  0  0  0
 11 74  1  0  0  0  0
 12 75  1  0  0  0  0
 12 76  1  6  0  0  0
 12 77  1  1  0  0  0
 13 16  1  6  0  0  0
 13 19  1  0  0  0  0
 13 78  1  1  0  0  0
 14 18  1  0  0  0  0
 14 19  1  6  0  0  0
 14 37  1  0  0  0  0
 14 79  1  1  0  0  0
 15 18  1  0  0  0  0
 15 21  1  6  0  0  0
 15 42  2  0  0  0  0
 16 36  1  0  0  0  0
 16 40  1  0  0  0  0
 16 50  1  6  0  0  0
 17 22  1  0  0  0  0
 17 33  1  1  0  0  0
 17 44  1  0  0  0  0
 17 49  1  6  0  0  0
 18 51  1  1  0  0  0
 18 80  1  6  0  0  0
 19 52  1  6  0  0  0
 19 81  1  0  0  0  0
 20 22  1  1  0  0  0
 20 23  1  0  0  0  0
 20 53  1  0  0  0  0
 20 82  1  6  0  0  0
 21 33  1  0  0  0  0
 22 46  1  1  0  0  0
 22 83  1  0  0  0  0
 23 39  1  6  0  0  0
 23 43  2  0  0  0  0
 24 29  1  0  0  0  0
 24 34  1  1  0  0  0
 24 45  1  6  0  0  0
 24 54  1  0  0  0  0
 25 28  1  6  0  0  0
 25 30  1  0  0  0  0
 25 41  1  0  0  0  0
 25 84  1  1  0  0  0
 26 30  1  0  0  0  0
 26 31  1  6  0  0  0
 26 36  1  0  0  0  0
 26 85  1  1  0  0  0
 27 29  1  0  0  0  0
 27 32  1  1  0  0  0
 27 37  1  6  0  0  0
 27 86  1  0  0  0  0
 28 35  1  0  0  0  0
 28 47  1  6  0  0  0
 28 87  1  0  0  0  0
 29 88  1  1  0  0  0
 29 89  1  6  0  0  0
 30 90  1  1  0  0  0
 30 91  1  0  0  0  0
 31 35  1  0  0  0  0
 32 38  1  0  0  0  0
 33 55  1  0  0  0  0
 33 92  1  1  0  0  0
 34 38  1  0  0  0  0
 34 48  1  0  0  0  0
 34 93  1  1  0  0  0
 35 56  1  0  0  0  0
 35 94  1  6  0  0  0
 38 57  1  1  0  0  0
 38 95  1  6  0  0  0
 39 40  1  0  0  0  0
 39 58  1  6  0  0  0
 39 96  1  0  0  0  0
 40 97  1  1  0  0  0
 40 98  1  0  0  0  0
 41 59  1  0  0  0  0
 41 60  1  1  0  0  0
 44 99  1  0  0  0  0
 45100  1  0  0  0  0
 46101  1  0  0  0  0
 47102  1  6  0  0  0
 48103  1  1  0  0  0
 49104  1  0  0  0  0
 49105  1  0  0  0  0
 49106  1  6  0  0  0
 50107  1  6  0  0  0
 50108  1  0  0  0  0
 50109  1  0  0  0  0
 51110  1  0  0  0  0
 51111  1  1  0  0  0
 51112  1  0  0  0  0
 52113  1  0  0  0  0
 52114  1  0  0  0  0
 52115  1  6  0  0  0
 53116  1  6  0  0  0
 53117  1  1  0  0  0
 53118  1  0  0  0  0
 54119  1  0  0  0  0
 54120  1  6  0  0  0
 54121  1  1  0  0  0
 55 61  1  1  0  0  0
 55122  1  6  0  0  0
 55123  1  0  0  0  0
 56124  1  0  0  0  0
 56125  1  0  0  0  0
 56126  1  1  0  0  0
 57127  1  0  0  0  0
 57128  1  1  0  0  0
 57129  1  0  0  0  0
 58130  1  6  0  0  0
 58131  1  0  0  0  0
 58132  1  0  0  0  0
 59133  1  0  0  0  0
 59134  1  0  0  0  0
 59135  1  6  0  0  0
 60136  1  0  0  0  0
 60137  1  0  0  0  0
 60138  1  1  0  0  0
 61139  1  0  0  0  0
 61140  1  1  0  0  0
 61141  1  0  0  0  0
M  END
>  <Formula> (268)
C44H80N2O15

>  <Name> (268)
MEGALOMICIN A

>  <CAS-Nr> (268)
28022-11-9

>  <Compound classification> (268)
AB-Macr

>  <Microorganism> (268)
Staphylococcus aureus

>  <Microorganism type> (268)
ATCC 11631, penicillin resistant

>  <Microorganism classification> (268)
Bac+

>  <MIC> (268)
0.6

>  <Method abbreviation> (268)
SDT

>  <Ref-Nr> (268)
7334

>  <Marker> (268)
0

>  <Method> (268)
Serial dilution test; Inoculum size: ---; Medium: yeast-beef broth; pH: 8.0; Incubation-temperature: -- degrees Centigrade; Incubation-time: ---; Solubility enhancer: ---

>  <Reference> (268)
Scherico Ltd.: Megalomicin Complex and Methods for Its Production; GB 1,229,835 (1971)

>  <mol_id> (268)
4862

>  <LD50-mouse-oral> (268)
7500

>  <LD50-mou-ip> (268)
350

>  <MolWeight> (268)
877.12

>  <Nickname> (268)
Megalomicin A

>  <other Names> (268)
Megalomicin, Megalomicin A, Antibiotic W-847-A, Antibiotic XK 41C, Megalomicina, Megalomicine, Megalomicinum, Megalomycin-A, Piperacilina, Piperacillin, Piperacillina, Piperacilline, Piperacillinum

$$$$

csChmFindW11180110282D

141144  0  0  0  0  0  0  0  0999 V2000
   12.4783   12.4010   -0.7203 C   0  0  0  0  0  0  0  0  0  0  0  0
   12.3048   12.7374    1.2444 C   0  0  0  0  0  0  0  0  0  0  0  0
   11.8071   10.7793   -1.4082 O   0  0  0  0  0  0  0  0  0  0  0  0
   13.4491   14.2915    1.8841 C   0  0  0  0  0  0  0  0  0  0  0  0
   14.2861   12.1395   -1.1328 O   0  0  0  0  0  0  0  0  0  0  0  0
   15.2766   14.2352    0.9926 C   0  0  0  0  0  0  0  0  0  0  0  0
   13.6833   14.3477    3.8107 N   0  0  0  0  0  0  0  0  0  0  0  0
   15.2556   13.7141   -0.9432 C   0  0  0  0  0  0  0  0  0  0  0  0
   10.5045   13.0879    1.6580 O   0  0  0  0  0  0  0  0  0  0  0  0
   14.6874   15.8853    4.3751 C   0  0  0  0  0  0  0  0  0  0  0  0
   12.0510   14.2844    4.8100 C   0  0  0  0  0  0  0  0  0  0  0  0
   17.1130   13.3937   -1.6459 C   0  0  0  0  0  0  0  0  0  0  0  0
    9.9968   10.3045   -1.2411 C   0  0  0  0  0  0  0  0  0  0  0  0
   10.5846    7.0054   -0.2449 C   0  0  0  0  0  0  0  0  0  0  0  0
    7.5038    5.7623    0.2984 C   0  0  0  0  0  0  0  0  0  0  0  0
    8.6319   11.5728   -2.2017 C   0  0  0  0  0  0  0  0  0  0  0  0
    3.3051    5.7408   -1.1036 C   0  0  0  0  0  0  0  0  0  0  0  0
    9.4201    5.3257   -0.1609 C   0  0  0  0  0  0  0  0  0  0  0  0
    9.9132    8.2899   -1.7219 C   0  0  0  0  0  0  0  0  0  0  0  0
    2.6772    9.1388   -1.6353 C   0  0  0  0  0  0  0  0  0  0  0  0
    6.3545    4.7657   -0.6576 O   0  0  0  0  0  0  0  0  0  0  0  0
    3.5337    7.6657   -0.5530 C   0  0  0  0  0  0  0  0  0  0  0  0
    3.5555   10.8554   -1.0561 C   0  0  0  0  0  0  0  0  0  0  0  0
   16.3378    7.5415    0.1361 C   0  0  0  0  0  0  0  0  0  0  0  0
    8.2608   18.1620   -1.5416 C   0  0  0  0  0  0  0  0  0  0  0  0
    8.0354   14.7942   -1.8663 C   0  0  0  0  0  0  0  0  0  0  0  0
   13.4947    5.7862    0.5725 C   0  0  0  0  0  0  0  0  0  0  0  0
    7.7729   18.1966   -3.4978 C   0  0  0  0  0  0  0  0  0  0  0  0
   15.4000    5.7725   -0.0538 C   0  0  0  0  0  0  0  0  0  0  0  0
    9.1011   16.3536   -1.1874 C   0  0  0  0  0  0  0  0  0  0  0  0
    7.5744   15.0089   -3.6540 O   0  0  0  0  0  0  0  0  0  0  0  0
   13.3499    6.4968    2.2843 O   0  0  0  0  0  0  0  0  0  0  0  0
    4.5883    4.5496   -0.0673 C   0  0  0  0  0  0  0  0  0  0  0  0
   15.9899    8.2564    1.9709 C   0  0  0  0  0  0  0  0  0  0  0  0
    6.6995   16.6029   -4.0522 C   0  0  0  0  0  0  0  0  0  0  0  0
    9.1745   13.3157   -1.7840 O   0  0  0  0  0  0  0  0  0  0  0  0
   12.3949    6.6877   -0.6362 O   0  0  0  0  0  0  0  0  0  0  0  0
   14.0440    8.2178    2.4258 C   0  0  0  0  0  0  0  0  0  0  0  0
    4.9821   11.7489   -2.1787 C   0  0  0  0  0  0  0  0  0  0  0  0
    6.7881   11.1521   -1.4473 C   0  0  0  0  0  0  0  0  0  0  0  0
    9.4216   19.6220   -1.0289 N   0  0  0  0  0  0  0  0  0  0  0  0
    7.1056    6.7629    1.4715 O   0  0  0  0  0  0  0  0  0  0  0  0
    3.2501   11.3698    0.4217 O   0  0  0  0  0  0  0  0  0  0  0  0
    1.5352    5.2417   -0.6926 O   0  0  0  0  0  0  0  0  0  0  0  0
   15.6271    8.7438   -1.1276 O   0  0  0  0  0  0  0  0  0  0  0  0
    3.0890    7.9203    1.2599 O   0  0  0  0  0  0  0  0  0  0  0  0
    9.3455   18.2775   -4.5308 O   0  0  0  0  0  0  0  0  0  0  0  0
   16.6118   10.0273    2.0255 O   0  0  0  0  0  0  0  0  0  0  0  0
    3.5337    5.5216   -3.0974 C   0  0  0  0  0  0  0  0  0  0  0  0
    8.7939   11.3188   -4.1916 C   0  0  0  0  0  0  0  0  0  0  0  0
    9.9241    3.9255    1.2182 C   0  0  0  0  0  0  0  0  0  0  0  0
   10.8348    7.7902   -3.4733 C   0  0  0  0  0  0  0  0  0  0  0  0
    0.6708    9.2583   -1.4277 C   0  0  0  0  0  0  0  0  0  0  0  0
   18.3084    7.3576   -0.2375 C   0  0  0  0  0  0  0  0  0  0  0  0
    4.1177    2.5822   -0.1853 C   0  0  0  0  0  0  0  0  0  0  0  0
    4.8091   16.6194   -3.3631 C   0  0  0  0  0  0  0  0  0  0  0  0
   13.6751    8.8748    4.2910 C   0  0  0  0  0  0  0  0  0  0  0  0
    4.6686   11.5048   -4.1580 C   0  0  0  0  0  0  0  0  0  0  0  0
    8.6651   21.3359   -1.4420 C   0  0  0  0  0  0  0  0  0  0  0  0
    9.8798   19.5704    0.8339 C   0  0  0  0  0  0  0  0  0  0  0  0
    5.3490    1.3793    0.8721 C   0  0  0  0  0  0  0  0  0  0  0  0
   12.0327   13.5246   -1.5284 H   0  0  0  0  0  0  0  0  0  0  0  0
   12.6847   11.5491    1.9931 H   0  0  0  0  0  0  0  0  0  0  0  0
   12.7832   15.5236    1.4314 H   0  0  0  0  0  0  0  0  0  0  0  0
   16.1193   13.2822    1.7203 H   0  0  0  0  0  0  0  0  0  0  0  0
   15.9348   15.5445    1.0651 H   0  0  0  0  0  0  0  0  0  0  0  0
   14.6368   14.7718   -1.7528 H   0  0  0  0  0  0  0  0  0  0  0  0
   10.2198   12.4886    2.7002 H   0  0  0  0  0  0  0  0  0  0  0  0
   14.8289   15.9172    5.8326 H   0  0  0  0  0  0  0  0  0  0  0  0
   14.0457   17.1302    3.9447 H   0  0  0  0  0  0  0  0  0  0  0  0
   16.0633   15.8506    3.8841 H   0  0  0  0  0  0  0  0  0  0  0  0
   12.2990   14.4588    6.2428 H   0  0  0  0  0  0  0  0  0  0  0  0
   11.4398   12.9594    4.7277 H   0  0  0  0  0  0  0  0  0  0  0  0
   11.1125   15.3233    4.3793 H   0  0  0  0  0  0  0  0  0  0  0  0
   17.9429   14.5940   -1.5161 H   0  0  0  0  0  0  0  0  0  0  0  0
   17.0805   13.0282   -3.0645 H   0  0  0  0  0  0  0  0  0  0  0  0
   17.7773   12.3046   -0.9258 H   0  0  0  0  0  0  0  0  0  0  0  0
    9.6801   10.3572    0.1887 H   0  0  0  0  0  0  0  0  0  0  0  0
   10.4915    7.6791    1.0510 H   0  0  0  0  0  0  0  0  0  0  0  0
    9.4355    4.6897   -1.4850 H   0  0  0  0  0  0  0  0  0  0  0  0
    8.5080    7.9432   -1.9434 H   0  0  0  0  0  0  0  0  0  0  0  0
    2.9630    8.9381   -3.0528 H   0  0  0  0  0  0  0  0  0  0  0  0
    4.9715    7.8995   -0.6491 H   0  0  0  0  0  0  0  0  0  0  0  0
    7.0207   18.2496   -0.7576 H   0  0  0  0  0  0  0  0  0  0  0  0
    6.8706   14.5986   -1.0160 H   0  0  0  0  0  0  0  0  0  0  0  0
   13.0883    4.3882    0.6255 H   0  0  0  0  0  0  0  0  0  0  0  0
    6.9812   19.3818   -3.8393 H   0  0  0  0  0  0  0  0  0  0  0  0
   16.1347    4.7837    0.7475 H   0  0  0  0  0  0  0  0  0  0  0  0
   15.4651    5.3186   -1.4477 H   0  0  0  0  0  0  0  0  0  0  0  0
    9.2849   16.1419    0.2519 H   0  0  0  0  0  0  0  0  0  0  0  0
   10.4369   16.3386   -1.7957 H   0  0  0  0  0  0  0  0  0  0  0  0
    4.5079    4.8800    1.3590 H   0  0  0  0  0  0  0  0  0  0  0  0
   16.7416    7.4922    2.9698 H   0  0  0  0  0  0  0  0  0  0  0  0
    6.5951   16.6287   -5.5221 H   0  0  0  0  0  0  0  0  0  0  0  0
   13.3211    9.0596    1.4774 H   0  0  0  0  0  0  0  0  0  0  0  0
    4.7694   13.1716   -1.9020 H   0  0  0  0  0  0  0  0  0  0  0  0
    6.8205   11.4674   -0.0125 H   0  0  0  0  0  0  0  0  0  0  0  0
    6.6760    9.7022   -1.5319 H   0  0  0  0  0  0  0  0  0  0  0  0
    1.3149    4.1375   -1.2079 H   0  0  0  0  0  0  0  0  0  0  0  0
   15.6348    9.8832   -0.6366 H   0  0  0  0  0  0  0  0  0  0  0  0
    3.2520    9.1288    1.5145 H   0  0  0  0  0  0  0  0  0  0  0  0
    9.0351   18.1461   -5.7217 H   0  0  0  0  0  0  0  0  0  0  0  0
   16.5000   10.4540    3.1812 H   0  0  0  0  0  0  0  0  0  0  0  0
    3.4926    4.1213   -3.5120 H   0  0  0  0  0  0  0  0  0  0  0  0
    4.8032    6.0838   -3.5628 H   0  0  0  0  0  0  0  0  0  0  0  0
    2.4560    6.1729   -3.8430 H   0  0  0  0  0  0  0  0  0  0  0  0
    8.1915   12.3714   -4.9933 H   0  0  0  0  0  0  0  0  0  0  0  0
    8.1400   10.0857   -4.6209 H   0  0  0  0  0  0  0  0  0  0  0  0
   10.1971   11.3109   -4.6080 H   0  0  0  0  0  0  0  0  0  0  0  0
    8.7840    3.0953    1.6057 H   0  0  0  0  0  0  0  0  0  0  0  0
   10.4164    4.5282    2.4578 H   0  0  0  0  0  0  0  0  0  0  0  0
   10.8853    2.9522    0.7029 H   0  0  0  0  0  0  0  0  0  0  0  0
   10.8596    6.3396   -3.6713 H   0  0  0  0  0  0  0  0  0  0  0  0
   12.2187    8.2624   -3.5345 H   0  0  0  0  0  0  0  0  0  0  0  0
   10.1731    8.2788   -4.6737 H   0  0  0  0  0  0  0  0  0  0  0  0
    0.1476   10.4222   -2.1483 H   0  0  0  0  0  0  0  0  0  0  0  0
    0.2599    9.3906   -0.0293 H   0  0  0  0  0  0  0  0  0  0  0  0
    0.0000    8.0825   -1.9826 H   0  0  0  0  0  0  0  0  0  0  0  0
   18.9873    8.6541   -0.1827 H   0  0  0  0  0  0  0  0  0  0  0  0
   18.5399    6.8000   -1.5723 H   0  0  0  0  0  0  0  0  0  0  0  0
   18.9586    6.4742    0.7327 H   0  0  0  0  0  0  0  0  0  0  0  0
    4.1333    2.1279   -1.5786 H   0  0  0  0  0  0  0  0  0  0  0  0
    2.7564    2.3661    0.3204 H   0  0  0  0  0  0  0  0  0  0  0  0
    4.0444   15.4893   -3.8954 H   0  0  0  0  0  0  0  0  0  0  0  0
    4.1110   17.8366   -3.7842 H   0  0  0  0  0  0  0  0  0  0  0  0
    4.7320   16.5652   -1.9046 H   0  0  0  0  0  0  0  0  0  0  0  0
   14.1388   10.2486    4.4924 H   0  0  0  0  0  0  0  0  0  0  0  0
   14.3374    8.0305    5.2878 H   0  0  0  0  0  0  0  0  0  0  0  0
   12.2371    8.8580    4.5748 H   0  0  0  0  0  0  0  0  0  0  0  0
    5.3829   12.4941   -4.9593 H   0  0  0  0  0  0  0  0  0  0  0  0
    3.2563   11.7049   -4.4933 H   0  0  0  0  0  0  0  0  0  0  0  0
    5.0698   10.1768   -4.6224 H   0  0  0  0  0  0  0  0  0  0  0  0
    9.5328   22.4191   -0.9737 H   0  0  0  0  0  0  0  0  0  0  0  0
    7.3442   21.5005   -0.8306 H   0  0  0  0  0  0  0  0  0  0  0  0
    8.5634   21.5438   -2.8856 H   0  0  0  0  0  0  0  0  0  0  0  0
   10.7065   20.7226    1.2010 H   0  0  0  0  0  0  0  0  0  0  0  0
   10.7040   18.4064    1.1558 H   0  0  0  0  0  0  0  0  0  0  0  0
    8.6845   19.5716    1.6812 H   0  0  0  0  0  0  0  0  0  0  0  0
    4.8524    0.0000    0.8829 H   0  0  0  0  0  0  0  0  0  0  0  0
    5.4620    1.8216    2.2639 H   0  0  0  0  0  0  0  0  0  0  0  0
    6.6906    1.3372    0.2882 H   0  0  0  0  0  0  0  0  0  0  0  0
  1  2  1  1  0  0  0
  1  3  1  0  0  0  0
  1  5  1  0  0  0  0
  1 62  1  6  0  0  0
  2  4  1  0  0  0  0
  2  9  1  0  0  0  0
  2 63  1  1  0  0  0
  3 13  1  0  0  0  0
  4  6  1  0  0  0  0
  4  7  1  1  0  0  0
  4 64  1  0  0  0  0
  5  8  1  0  0  0  0
  6  8  1  6  0  0  0
  6 65  1  1  0  0  0
  6 66  1  0  0  0  0
  7 10  1  0  0  0  0
  7 11  1  1  0  0  0
  8 12  1  0  0  0  0
  8 67  1  6  0  0  0
  9 68  1  1  0  0  0
 10 69  1  1  0  0  0
 10 70  1  0  0  0  0
 10 71  1  0  0  0  0
 11 72  1  1  0  0  0
 11 73  1  0  0  0  0
 11 74  1  0  0  0  0
 12 75  1  0  0  0  0
 12 76  1  6  0  0  0
 12 77  1  1  0  0  0
 13 16  1  6  0  0  0
 13 19  1  0  0  0  0
 13 78  1  1  0  0  0
 14 18  1  0  0  0  0
 14 19  1  6  0  0  0
 14 37  1  0  0  0  0
 14 79  1  1  0  0  0
 15 18  1  0  0  0  0
 15 21  1  6  0  0  0
 15 42  2  0  0  0  0
 16 36  1  0  0  0  0
 16 40  1  0  0  0  0
 16 50  1  6  0  0  0
 17 22  1  0  0  0  0
 17 33  1  1  0  0  0
 17 44  1  0  0  0  0
 17 49  1  6  0  0  0
 18 51  1  1  0  0  0
 18 80  1  6  0  0  0
 19 52  1  6  0  0  0
 19 81  1  0  0  0  0
 20 22  1  1  0  0  0
 20 23  1  0  0  0  0
 20 53  1  0  0  0  0
 20 82  1  6  0  0  0
 21 33  1  0  0  0  0
 22 46  1  1  0  0  0
 22 83  1  0  0  0  0
 23 39  1  6  0  0  0
 23 43  2  0  0  0  0
 24 29  1  0  0  0  0
 24 34  1  1  0  0  0
 24 45  1  6  0  0  0
 24 54  1  0  0  0  0
 25 28  1  6  0  0  0
 25 30  1  0  0  0  0
 25 41  1  0  0  0  0
 25 84  1  1  0  0  0
 26 30  1  0  0  0  0
 26 31  1  6  0  0  0
 26 36  1  0  0  0  0
 26 85  1  1  0  0  0
 27 29  1  0  0  0  0
 27 32  1  1  0  0  0
 27 37  1  6  0  0  0
 27 86  1  0  0  0  0
 28 35  1  0  0  0  0
 28 47  1  6  0  0  0
 28 87  1  0  0  0  0
 29 88  1  1  0  0  0
 29 89  1  6  0  0  0
 30 90  1  1  0  0  0
 30 91  1  0  0  0  0
 31 35  1  0  0  0  0
 32 38  1  0  0  0  0
 33 55  1  0  0  0  0
 33 92  1  1  0  0  0
 34 38  1  0  0  0  0
 34 48  1  0  0  0  0
 34 93  1  1  0  0  0
 35 56  1  0  0  0  0
 35 94  1  6  0  0  0
 38 57  1  1  0  0  0
 38 95  1  6  0  0  0
 39 40  1  0  0  0  0
 39 58  1  6  0  0  0
 39 96  1  0  0  0  0
 40 97  1  1  0  0  0
 40 98  1  0  0  0  0
 41 59  1  0  0  0  0
 41 60  1  1  0  0  0
 44 99  1  0  0  0  0
 45100  1  0  0  0  0
 46101  1  0  0  0  0
 47102  1  6  0  0  0
 48103  1  1  0  0  0
 49104  1  0  0  0  0
 49105  1  0  0  0  0
 49106  1  6  0  0  0
 50107  1  6  0  0  0
 50108  1  0  0  0  0
 50109  1  0  0  0  0
 51110  1  0  0  0  0
 51111  1  1  0  0  0
 51112  1  0  0  0  0
 52113  1  0  0  0  0
 52114  1  0  0  0  0
 52115  1  6  0  0  0
 53116  1  6  0  0  0
 53117  1  1  0  0  0
 53118  1  0  0  0  0
 54119  1  0  0  0  0
 54120  1  6  0  0  0
 54121  1  1  0  0  0
 55 61  1  1  0  0  0
 55122  1  6  0  0  0
 55123  1  0  0  0  0
 56124  1  0  0  0  0
 56125  1  0  0  0  0
 56126  1  1  0  0  0
 57127  1  0  0  0  0
 57128  1  1  0  0  0
 57129  1  0  0  0  0
 58130  1  6  0  0  0
 58131  1  0  0  0  0
 58132  1  0  0  0  0
 59133  1  0  0  0  0
 59134  1  0  0  0  0
 59135  1  6  0  0  0
 60136  1  0  0  0  0
 60137  1  0  0  0  0
 60138  1  1  0  0  0
 61139  1  0  0  0  0
 61140  1  1  0  0  0
 61141  1  0  0  0  0
M  END
>  <Formula> (269)
C44H80N2O15

>  <Name> (269)
MEGALOMICIN A

>  <CAS-Nr> (269)
28022-11-9

>  <Compound classification> (269)
AB-Macr

>  <Microorganism> (269)
Streptococcus pneumoniae

>  <Microorganism type> (269)
DA 150

>  <Publication strain name> (269)
Diplococcus pneumoniae

>  <Microorganism classification> (269)
Bac+

>  <NIC> (269)
2.7

>  <Method abbreviation> (269)
SDT

>  <Ref-Nr> (269)
7334

>  <Marker> (269)
0

>  <Method> (269)
Serial dilution test; Inoculum size: ---; Medium: yeast-beef broth; pH: 8.0; Incubation-temperature: -- degrees Centigrade; Incubation-time: ---; Solubility enhancer: ---

>  <Reference> (269)
Scherico Ltd.: Megalomicin Complex and Methods for Its Production; GB 1,229,835 (1971)

>  <mol_id> (269)
4862

>  <LD50-mouse-oral> (269)
7500

>  <LD50-mou-ip> (269)
350

>  <MolWeight> (269)
877.12

>  <Nickname> (269)
Megalomicin A

>  <other Names> (269)
Megalomicin, Megalomicin A, Antibiotic W-847-A, Antibiotic XK 41C, Megalomicina, Megalomicine, Megalomicinum, Megalomycin-A, Piperacilina, Piperacillin, Piperacillina, Piperacilline, Piperacillinum

$$$$

csChmFindW11180110282D

141144  0  0  0  0  0  0  0  0999 V2000
   12.4783   12.4010   -0.7203 C   0  0  0  0  0  0  0  0  0  0  0  0
   12.3048   12.7374    1.2444 C   0  0  0  0  0  0  0  0  0  0  0  0
   11.8071   10.7793   -1.4082 O   0  0  0  0  0  0  0  0  0  0  0  0
   13.4491   14.2915    1.8841 C   0  0  0  0  0  0  0  0  0  0  0  0
   14.2861   12.1395   -1.1328 O   0  0  0  0  0  0  0  0  0  0  0  0
   15.2766   14.2352    0.9926 C   0  0  0  0  0  0  0  0  0  0  0  0
   13.6833   14.3477    3.8107 N   0  0  0  0  0  0  0  0  0  0  0  0
   15.2556   13.7141   -0.9432 C   0  0  0  0  0  0  0  0  0  0  0  0
   10.5045   13.0879    1.6580 O   0  0  0  0  0  0  0  0  0  0  0  0
   14.6874   15.8853    4.3751 C   0  0  0  0  0  0  0  0  0  0  0  0
   12.0510   14.2844    4.8100 C   0  0  0  0  0  0  0  0  0  0  0  0
   17.1130   13.3937   -1.6459 C   0  0  0  0  0  0  0  0  0  0  0  0
    9.9968   10.3045   -1.2411 C   0  0  0  0  0  0  0  0  0  0  0  0
   10.5846    7.0054   -0.2449 C   0  0  0  0  0  0  0  0  0  0  0  0
    7.5038    5.7623    0.2984 C   0  0  0  0  0  0  0  0  0  0  0  0
    8.6319   11.5728   -2.2017 C   0  0  0  0  0  0  0  0  0  0  0  0
    3.3051    5.7408   -1.1036 C   0  0  0  0  0  0  0  0  0  0  0  0
    9.4201    5.3257   -0.1609 C   0  0  0  0  0  0  0  0  0  0  0  0
    9.9132    8.2899   -1.7219 C   0  0  0  0  0  0  0  0  0  0  0  0
    2.6772    9.1388   -1.6353 C   0  0  0  0  0  0  0  0  0  0  0  0
    6.3545    4.7657   -0.6576 O   0  0  0  0  0  0  0  0  0  0  0  0
    3.5337    7.6657   -0.5530 C   0  0  0  0  0  0  0  0  0  0  0  0
    3.5555   10.8554   -1.0561 C   0  0  0  0  0  0  0  0  0  0  0  0
   16.3378    7.5415    0.1361 C   0  0  0  0  0  0  0  0  0  0  0  0
    8.2608   18.1620   -1.5416 C   0  0  0  0  0  0  0  0  0  0  0  0
    8.0354   14.7942   -1.8663 C   0  0  0  0  0  0  0  0  0  0  0  0
   13.4947    5.7862    0.5725 C   0  0  0  0  0  0  0  0  0  0  0  0
    7.7729   18.1966   -3.4978 C   0  0  0  0  0  0  0  0  0  0  0  0
   15.4000    5.7725   -0.0538 C   0  0  0  0  0  0  0  0  0  0  0  0
    9.1011   16.3536   -1.1874 C   0  0  0  0  0  0  0  0  0  0  0  0
    7.5744   15.0089   -3.6540 O   0  0  0  0  0  0  0  0  0  0  0  0
   13.3499    6.4968    2.2843 O   0  0  0  0  0  0  0  0  0  0  0  0
    4.5883    4.5496   -0.0673 C   0  0  0  0  0  0  0  0  0  0  0  0
   15.9899    8.2564    1.9709 C   0  0  0  0  0  0  0  0  0  0  0  0
    6.6995   16.6029   -4.0522 C   0  0  0  0  0  0  0  0  0  0  0  0
    9.1745   13.3157   -1.7840 O   0  0  0  0  0  0  0  0  0  0  0  0
   12.3949    6.6877   -0.6362 O   0  0  0  0  0  0  0  0  0  0  0  0
   14.0440    8.2178    2.4258 C   0  0  0  0  0  0  0  0  0  0  0  0
    4.9821   11.7489   -2.1787 C   0  0  0  0  0  0  0  0  0  0  0  0
    6.7881   11.1521   -1.4473 C   0  0  0  0  0  0  0  0  0  0  0  0
    9.4216   19.6220   -1.0289 N   0  0  0  0  0  0  0  0  0  0  0  0
    7.1056    6.7629    1.4715 O   0  0  0  0  0  0  0  0  0  0  0  0
    3.2501   11.3698    0.4217 O   0  0  0  0  0  0  0  0  0  0  0  0
    1.5352    5.2417   -0.6926 O   0  0  0  0  0  0  0  0  0  0  0  0
   15.6271    8.7438   -1.1276 O   0  0  0  0  0  0  0  0  0  0  0  0
    3.0890    7.9203    1.2599 O   0  0  0  0  0  0  0  0  0  0  0  0
    9.3455   18.2775   -4.5308 O   0  0  0  0  0  0  0  0  0  0  0  0
   16.6118   10.0273    2.0255 O   0  0  0  0  0  0  0  0  0  0  0  0
    3.5337    5.5216   -3.0974 C   0  0  0  0  0  0  0  0  0  0  0  0
    8.7939   11.3188   -4.1916 C   0  0  0  0  0  0  0  0  0  0  0  0
    9.9241    3.9255    1.2182 C   0  0  0  0  0  0  0  0  0  0  0  0
   10.8348    7.7902   -3.4733 C   0  0  0  0  0  0  0  0  0  0  0  0
    0.6708    9.2583   -1.4277 C   0  0  0  0  0  0  0  0  0  0  0  0
   18.3084    7.3576   -0.2375 C   0  0  0  0  0  0  0  0  0  0  0  0
    4.1177    2.5822   -0.1853 C   0  0  0  0  0  0  0  0  0  0  0  0
    4.8091   16.6194   -3.3631 C   0  0  0  0  0  0  0  0  0  0  0  0
   13.6751    8.8748    4.2910 C   0  0  0  0  0  0  0  0  0  0  0  0
    4.6686   11.5048   -4.1580 C   0  0  0  0  0  0  0  0  0  0  0  0
    8.6651   21.3359   -1.4420 C   0  0  0  0  0  0  0  0  0  0  0  0
    9.8798   19.5704    0.8339 C   0  0  0  0  0  0  0  0  0  0  0  0
    5.3490    1.3793    0.8721 C   0  0  0  0  0  0  0  0  0  0  0  0
   12.0327   13.5246   -1.5284 H   0  0  0  0  0  0  0  0  0  0  0  0
   12.6847   11.5491    1.9931 H   0  0  0  0  0  0  0  0  0  0  0  0
   12.7832   15.5236    1.4314 H   0  0  0  0  0  0  0  0  0  0  0  0
   16.1193   13.2822    1.7203 H   0  0  0  0  0  0  0  0  0  0  0  0
   15.9348   15.5445    1.0651 H   0  0  0  0  0  0  0  0  0  0  0  0
   14.6368   14.7718   -1.7528 H   0  0  0  0  0  0  0  0  0  0  0  0
   10.2198   12.4886    2.7002 H   0  0  0  0  0  0  0  0  0  0  0  0
   14.8289   15.9172    5.8326 H   0  0  0  0  0  0  0  0  0  0  0  0
   14.0457   17.1302    3.9447 H   0  0  0  0  0  0  0  0  0  0  0  0
   16.0633   15.8506    3.8841 H   0  0  0  0  0  0  0  0  0  0  0  0
   12.2990   14.4588    6.2428 H   0  0  0  0  0  0  0  0  0  0  0  0
   11.4398   12.9594    4.7277 H   0  0  0  0  0  0  0  0  0  0  0  0
   11.1125   15.3233    4.3793 H   0  0  0  0  0  0  0  0  0  0  0  0
   17.9429   14.5940   -1.5161 H   0  0  0  0  0  0  0  0  0  0  0  0
   17.0805   13.0282   -3.0645 H   0  0  0  0  0  0  0  0  0  0  0  0
   17.7773   12.3046   -0.9258 H   0  0  0  0  0  0  0  0  0  0  0  0
    9.6801   10.3572    0.1887 H   0  0  0  0  0  0  0  0  0  0  0  0
   10.4915    7.6791    1.0510 H   0  0  0  0  0  0  0  0  0  0  0  0
    9.4355    4.6897   -1.4850 H   0  0  0  0  0  0  0  0  0  0  0  0
    8.5080    7.9432   -1.9434 H   0  0  0  0  0  0  0  0  0  0  0  0
    2.9630    8.9381   -3.0528 H   0  0  0  0  0  0  0  0  0  0  0  0
    4.9715    7.8995   -0.6491 H   0  0  0  0  0  0  0  0  0  0  0  0
    7.0207   18.2496   -0.7576 H   0  0  0  0  0  0  0  0  0  0  0  0
    6.8706   14.5986   -1.0160 H   0  0  0  0  0  0  0  0  0  0  0  0
   13.0883    4.3882    0.6255 H   0  0  0  0  0  0  0  0  0  0  0  0
    6.9812   19.3818   -3.8393 H   0  0  0  0  0  0  0  0  0  0  0  0
   16.1347    4.7837    0.7475 H   0  0  0  0  0  0  0  0  0  0  0  0
   15.4651    5.3186   -1.4477 H   0  0  0  0  0  0  0  0  0  0  0  0
    9.2849   16.1419    0.2519 H   0  0  0  0  0  0  0  0  0  0  0  0
   10.4369   16.3386   -1.7957 H   0  0  0  0  0  0  0  0  0  0  0  0
    4.5079    4.8800    1.3590 H   0  0  0  0  0  0  0  0  0  0  0  0
   16.7416    7.4922    2.9698 H   0  0  0  0  0  0  0  0  0  0  0  0
    6.5951   16.6287   -5.5221 H   0  0  0  0  0  0  0  0  0  0  0  0
   13.3211    9.0596    1.4774 H   0  0  0  0  0  0  0  0  0  0  0  0
    4.7694   13.1716   -1.9020 H   0  0  0  0  0  0  0  0  0  0  0  0
    6.8205   11.4674   -0.0125 H   0  0  0  0  0  0  0  0  0  0  0  0
    6.6760    9.7022   -1.5319 H   0  0  0  0  0  0  0  0  0  0  0  0
    1.3149    4.1375   -1.2079 H   0  0  0  0  0  0  0  0  0  0  0  0
   15.6348    9.8832   -0.6366 H   0  0  0  0  0  0  0  0  0  0  0  0
    3.2520    9.1288    1.5145 H   0  0  0  0  0  0  0  0  0  0  0  0
    9.0351   18.1461   -5.7217 H   0  0  0  0  0  0  0  0  0  0  0  0
   16.5000   10.4540    3.1812 H   0  0  0  0  0  0  0  0  0  0  0  0
    3.4926    4.1213   -3.5120 H   0  0  0  0  0  0  0  0  0  0  0  0
    4.8032    6.0838   -3.5628 H   0  0  0  0  0  0  0  0  0  0  0  0
    2.4560    6.1729   -3.8430 H   0  0  0  0  0  0  0  0  0  0  0  0
    8.1915   12.3714   -4.9933 H   0  0  0  0  0  0  0  0  0  0  0  0
    8.1400   10.0857   -4.6209 H   0  0  0  0  0  0  0  0  0  0  0  0
   10.1971   11.3109   -4.6080 H   0  0  0  0  0  0  0  0  0  0  0  0
    8.7840    3.0953    1.6057 H   0  0  0  0  0  0  0  0  0  0  0  0
   10.4164    4.5282    2.4578 H   0  0  0  0  0  0  0  0  0  0  0  0
   10.8853    2.9522    0.7029 H   0  0  0  0  0  0  0  0  0  0  0  0
   10.8596    6.3396   -3.6713 H   0  0  0  0  0  0  0  0  0  0  0  0
   12.2187    8.2624   -3.5345 H   0  0  0  0  0  0  0  0  0  0  0  0
   10.1731    8.2788   -4.6737 H   0  0  0  0  0  0  0  0  0  0  0  0
    0.1476   10.4222   -2.1483 H   0  0  0  0  0  0  0  0  0  0  0  0
    0.2599    9.3906   -0.0293 H   0  0  0  0  0  0  0  0  0  0  0  0
    0.0000    8.0825   -1.9826 H   0  0  0  0  0  0  0  0  0  0  0  0
   18.9873    8.6541   -0.1827 H   0  0  0  0  0  0  0  0  0  0  0  0
   18.5399    6.8000   -1.5723 H   0  0  0  0  0  0  0  0  0  0  0  0
   18.9586    6.4742    0.7327 H   0  0  0  0  0  0  0  0  0  0  0  0
    4.1333    2.1279   -1.5786 H   0  0  0  0  0  0  0  0  0  0  0  0
    2.7564    2.3661    0.3204 H   0  0  0  0  0  0  0  0  0  0  0  0
    4.0444   15.4893   -3.8954 H   0  0  0  0  0  0  0  0  0  0  0  0
    4.1110   17.8366   -3.7842 H   0  0  0  0  0  0  0  0  0  0  0  0
    4.7320   16.5652   -1.9046 H   0  0  0  0  0  0  0  0  0  0  0  0
   14.1388   10.2486    4.4924 H   0  0  0  0  0  0  0  0  0  0  0  0
   14.3374    8.0305    5.2878 H   0  0  0  0  0  0  0  0  0  0  0  0
   12.2371    8.8580    4.5748 H   0  0  0  0  0  0  0  0  0  0  0  0
    5.3829   12.4941   -4.9593 H   0  0  0  0  0  0  0  0  0  0  0  0
    3.2563   11.7049   -4.4933 H   0  0  0  0  0  0  0  0  0  0  0  0
    5.0698   10.1768   -4.6224 H   0  0  0  0  0  0  0  0  0  0  0  0
    9.5328   22.4191   -0.9737 H   0  0  0  0  0  0  0  0  0  0  0  0
    7.3442   21.5005   -0.8306 H   0  0  0  0  0  0  0  0  0  0  0  0
    8.5634   21.5438   -2.8856 H   0  0  0  0  0  0  0  0  0  0  0  0
   10.7065   20.7226    1.2010 H   0  0  0  0  0  0  0  0  0  0  0  0
   10.7040   18.4064    1.1558 H   0  0  0  0  0  0  0  0  0  0  0  0
    8.6845   19.5716    1.6812 H   0  0  0  0  0  0  0  0  0  0  0  0
    4.8524    0.0000    0.8829 H   0  0  0  0  0  0  0  0  0  0  0  0
    5.4620    1.8216    2.2639 H   0  0  0  0  0  0  0  0  0  0  0  0
    6.6906    1.3372    0.2882 H   0  0  0  0  0  0  0  0  0  0  0  0
  1  2  1  1  0  0  0
  1  3  1  0  0  0  0
  1  5  1  0  0  0  0
  1 62  1  6  0  0  0
  2  4  1  0  0  0  0
  2  9  1  0  0  0  0
  2 63  1  1  0  0  0
  3 13  1  0  0  0  0
  4  6  1  0  0  0  0
  4  7  1  1  0  0  0
  4 64  1  0  0  0  0
  5  8  1  0  0  0  0
  6  8  1  6  0  0  0
  6 65  1  1  0  0  0
  6 66  1  0  0  0  0
  7 10  1  0  0  0  0
  7 11  1  1  0  0  0
  8 12  1  0  0  0  0
  8 67  1  6  0  0  0
  9 68  1  1  0  0  0
 10 69  1  1  0  0  0
 10 70  1  0  0  0  0
 10 71  1  0  0  0  0
 11 72  1  1  0  0  0
 11 73  1  0  0  0  0
 11 74  1  0  0  0  0
 12 75  1  0  0  0  0
 12 76  1  6  0  0  0
 12 77  1  1  0  0  0
 13 16  1  6  0  0  0
 13 19  1  0  0  0  0
 13 78  1  1  0  0  0
 14 18  1  0  0  0  0
 14 19  1  6  0  0  0
 14 37  1  0  0  0  0
 14 79  1  1  0  0  0
 15 18  1  0  0  0  0
 15 21  1  6  0  0  0
 15 42  2  0  0  0  0
 16 36  1  0  0  0  0
 16 40  1  0  0  0  0
 16 50  1  6  0  0  0
 17 22  1  0  0  0  0
 17 33  1  1  0  0  0
 17 44  1  0  0  0  0
 17 49  1  6  0  0  0
 18 51  1  1  0  0  0
 18 80  1  6  0  0  0
 19 52  1  6  0  0  0
 19 81  1  0  0  0  0
 20 22  1  1  0  0  0
 20 23  1  0  0  0  0
 20 53  1  0  0  0  0
 20 82  1  6  0  0  0
 21 33  1  0  0  0  0
 22 46  1  1  0  0  0
 22 83  1  0  0  0  0
 23 39  1  6  0  0  0
 23 43  2  0  0  0  0
 24 29  1  0  0  0  0
 24 34  1  1  0  0  0
 24 45  1  6  0  0  0
 24 54  1  0  0  0  0
 25 28  1  6  0  0  0
 25 30  1  0  0  0  0
 25 41  1  0  0  0  0
 25 84  1  1  0  0  0
 26 30  1  0  0  0  0
 26 31  1  6  0  0  0
 26 36  1  0  0  0  0
 26 85  1  1  0  0  0
 27 29  1  0  0  0  0
 27 32  1  1  0  0  0
 27 37  1  6  0  0  0
 27 86  1  0  0  0  0
 28 35  1  0  0  0  0
 28 47  1  6  0  0  0
 28 87  1  0  0  0  0
 29 88  1  1  0  0  0
 29 89  1  6  0  0  0
 30 90  1  1  0  0  0
 30 91  1  0  0  0  0
 31 35  1  0  0  0  0
 32 38  1  0  0  0  0
 33 55  1  0  0  0  0
 33 92  1  1  0  0  0
 34 38  1  0  0  0  0
 34 48  1  0  0  0  0
 34 93  1  1  0  0  0
 35 56  1  0  0  0  0
 35 94  1  6  0  0  0
 38 57  1  1  0  0  0
 38 95  1  6  0  0  0
 39 40  1  0  0  0  0
 39 58  1  6  0  0  0
 39 96  1  0  0  0  0
 40 97  1  1  0  0  0
 40 98  1  0  0  0  0
 41 59  1  0  0  0  0
 41 60  1  1  0  0  0
 44 99  1  0  0  0  0
 45100  1  0  0  0  0
 46101  1  0  0  0  0
 47102  1  6  0  0  0
 48103  1  1  0  0  0
 49104  1  0  0  0  0
 49105  1  0  0  0  0
 49106  1  6  0  0  0
 50107  1  6  0  0  0
 50108  1  0  0  0  0
 50109  1  0  0  0  0
 51110  1  0  0  0  0
 51111  1  1  0  0  0
 51112  1  0  0  0  0
 52113  1  0  0  0  0
 52114  1  0  0  0  0
 52115  1  6  0  0  0
 53116  1  6  0  0  0
 53117  1  1  0  0  0
 53118  1  0  0  0  0
 54119  1  0  0  0  0
 54120  1  6  0  0  0
 54121  1  1  0  0  0
 55 61  1  1  0  0  0
 55122  1  6  0  0  0
 55123  1  0  0  0  0
 56124  1  0  0  0  0
 56125  1  0  0  0  0
 56126  1  1  0  0  0
 57127  1  0  0  0  0
 57128  1  1  0  0  0
 57129  1  0  0  0  0
 58130  1  6  0  0  0
 58131  1  0  0  0  0
 58132  1  0  0  0  0
 59133  1  0  0  0  0
 59134  1  0  0  0  0
 59135  1  6  0  0  0
 60136  1  0  0  0  0
 60137  1  0  0  0  0
 60138  1  1  0  0  0
 61139  1  0  0  0  0
 61140  1  1  0  0  0
 61141  1  0  0  0  0
M  END
>  <Formula> (270)
C44H80N2O15

>  <Name> (270)
MEGALOMICIN A

>  <CAS-Nr> (270)
28022-11-9

>  <Compound classification> (270)
AB-Macr

>  <Microorganism> (270)
Streptococcus pneumoniae

>  <Microorganism type> (270)
ATCC 10015

>  <Publication strain name> (270)
Diplococcus pneumoniae

>  <Microorganism classification> (270)
Bac+

>  <MIC> (270)
0.5

>  <Method abbreviation> (270)
SDT

>  <Ref-Nr> (270)
7334

>  <Marker> (270)
0

>  <Method> (270)
Serial dilution test; Inoculum size: ---; Medium: yeast-beef broth; pH: 8.0; Incubation-temperature: -- degrees Centigrade; Incubation-time: ---; Solubility enhancer: ---

>  <Reference> (270)
Scherico Ltd.: Megalomicin Complex and Methods for Its Production; GB 1,229,835 (1971)

>  <mol_id> (270)
4862

>  <LD50-mouse-oral> (270)
7500

>  <LD50-mou-ip> (270)
350

>  <MolWeight> (270)
877.12

>  <Nickname> (270)
Megalomicin A

>  <other Names> (270)
Megalomicin, Megalomicin A, Antibiotic W-847-A, Antibiotic XK 41C, Megalomicina, Megalomicine, Megalomicinum, Megalomycin-A, Piperacilina, Piperacillin, Piperacillina, Piperacilline, Piperacillinum

$$$$

csChmFindW11180110282D

141144  0  0  0  0  0  0  0  0999 V2000
   12.4783   12.4010   -0.7203 C   0  0  0  0  0  0  0  0  0  0  0  0
   12.3048   12.7374    1.2444 C   0  0  0  0  0  0  0  0  0  0  0  0
   11.8071   10.7793   -1.4082 O   0  0  0  0  0  0  0  0  0  0  0  0
   13.4491   14.2915    1.8841 C   0  0  0  0  0  0  0  0  0  0  0  0
   14.2861   12.1395   -1.1328 O   0  0  0  0  0  0  0  0  0  0  0  0
   15.2766   14.2352    0.9926 C   0  0  0  0  0  0  0  0  0  0  0  0
   13.6833   14.3477    3.8107 N   0  0  0  0  0  0  0  0  0  0  0  0
   15.2556   13.7141   -0.9432 C   0  0  0  0  0  0  0  0  0  0  0  0
   10.5045   13.0879    1.6580 O   0  0  0  0  0  0  0  0  0  0  0  0
   14.6874   15.8853    4.3751 C   0  0  0  0  0  0  0  0  0  0  0  0
   12.0510   14.2844    4.8100 C   0  0  0  0  0  0  0  0  0  0  0  0
   17.1130   13.3937   -1.6459 C   0  0  0  0  0  0  0  0  0  0  0  0
    9.9968   10.3045   -1.2411 C   0  0  0  0  0  0  0  0  0  0  0  0
   10.5846    7.0054   -0.2449 C   0  0  0  0  0  0  0  0  0  0  0  0
    7.5038    5.7623    0.2984 C   0  0  0  0  0  0  0  0  0  0  0  0
    8.6319   11.5728   -2.2017 C   0  0  0  0  0  0  0  0  0  0  0  0
    3.3051    5.7408   -1.1036 C   0  0  0  0  0  0  0  0  0  0  0  0
    9.4201    5.3257   -0.1609 C   0  0  0  0  0  0  0  0  0  0  0  0
    9.9132    8.2899   -1.7219 C   0  0  0  0  0  0  0  0  0  0  0  0
    2.6772    9.1388   -1.6353 C   0  0  0  0  0  0  0  0  0  0  0  0
    6.3545    4.7657   -0.6576 O   0  0  0  0  0  0  0  0  0  0  0  0
    3.5337    7.6657   -0.5530 C   0  0  0  0  0  0  0  0  0  0  0  0
    3.5555   10.8554   -1.0561 C   0  0  0  0  0  0  0  0  0  0  0  0
   16.3378    7.5415    0.1361 C   0  0  0  0  0  0  0  0  0  0  0  0
    8.2608   18.1620   -1.5416 C   0  0  0  0  0  0  0  0  0  0  0  0
    8.0354   14.7942   -1.8663 C   0  0  0  0  0  0  0  0  0  0  0  0
   13.4947    5.7862    0.5725 C   0  0  0  0  0  0  0  0  0  0  0  0
    7.7729   18.1966   -3.4978 C   0  0  0  0  0  0  0  0  0  0  0  0
   15.4000    5.7725   -0.0538 C   0  0  0  0  0  0  0  0  0  0  0  0
    9.1011   16.3536   -1.1874 C   0  0  0  0  0  0  0  0  0  0  0  0
    7.5744   15.0089   -3.6540 O   0  0  0  0  0  0  0  0  0  0  0  0
   13.3499    6.4968    2.2843 O   0  0  0  0  0  0  0  0  0  0  0  0
    4.5883    4.5496   -0.0673 C   0  0  0  0  0  0  0  0  0  0  0  0
   15.9899    8.2564    1.9709 C   0  0  0  0  0  0  0  0  0  0  0  0
    6.6995   16.6029   -4.0522 C   0  0  0  0  0  0  0  0  0  0  0  0
    9.1745   13.3157   -1.7840 O   0  0  0  0  0  0  0  0  0  0  0  0
   12.3949    6.6877   -0.6362 O   0  0  0  0  0  0  0  0  0  0  0  0
   14.0440    8.2178    2.4258 C   0  0  0  0  0  0  0  0  0  0  0  0
    4.9821   11.7489   -2.1787 C   0  0  0  0  0  0  0  0  0  0  0  0
    6.7881   11.1521   -1.4473 C   0  0  0  0  0  0  0  0  0  0  0  0
    9.4216   19.6220   -1.0289 N   0  0  0  0  0  0  0  0  0  0  0  0
    7.1056    6.7629    1.4715 O   0  0  0  0  0  0  0  0  0  0  0  0
    3.2501   11.3698    0.4217 O   0  0  0  0  0  0  0  0  0  0  0  0
    1.5352    5.2417   -0.6926 O   0  0  0  0  0  0  0  0  0  0  0  0
   15.6271    8.7438   -1.1276 O   0  0  0  0  0  0  0  0  0  0  0  0
    3.0890    7.9203    1.2599 O   0  0  0  0  0  0  0  0  0  0  0  0
    9.3455   18.2775   -4.5308 O   0  0  0  0  0  0  0  0  0  0  0  0
   16.6118   10.0273    2.0255 O   0  0  0  0  0  0  0  0  0  0  0  0
    3.5337    5.5216   -3.0974 C   0  0  0  0  0  0  0  0  0  0  0  0
    8.7939   11.3188   -4.1916 C   0  0  0  0  0  0  0  0  0  0  0  0
    9.9241    3.9255    1.2182 C   0  0  0  0  0  0  0  0  0  0  0  0
   10.8348    7.7902   -3.4733 C   0  0  0  0  0  0  0  0  0  0  0  0
    0.6708    9.2583   -1.4277 C   0  0  0  0  0  0  0  0  0  0  0  0
   18.3084    7.3576   -0.2375 C   0  0  0  0  0  0  0  0  0  0  0  0
    4.1177    2.5822   -0.1853 C   0  0  0  0  0  0  0  0  0  0  0  0
    4.8091   16.6194   -3.3631 C   0  0  0  0  0  0  0  0  0  0  0  0
   13.6751    8.8748    4.2910 C   0  0  0  0  0  0  0  0  0  0  0  0
    4.6686   11.5048   -4.1580 C   0  0  0  0  0  0  0  0  0  0  0  0
    8.6651   21.3359   -1.4420 C   0  0  0  0  0  0  0  0  0  0  0  0
    9.8798   19.5704    0.8339 C   0  0  0  0  0  0  0  0  0  0  0  0
    5.3490    1.3793    0.8721 C   0  0  0  0  0  0  0  0  0  0  0  0
   12.0327   13.5246   -1.5284 H   0  0  0  0  0  0  0  0  0  0  0  0
   12.6847   11.5491    1.9931 H   0  0  0  0  0  0  0  0  0  0  0  0
   12.7832   15.5236    1.4314 H   0  0  0  0  0  0  0  0  0  0  0  0
   16.1193   13.2822    1.7203 H   0  0  0  0  0  0  0  0  0  0  0  0
   15.9348   15.5445    1.0651 H   0  0  0  0  0  0  0  0  0  0  0  0
   14.6368   14.7718   -1.7528 H   0  0  0  0  0  0  0  0  0  0  0  0
   10.2198   12.4886    2.7002 H   0  0  0  0  0  0  0  0  0  0  0  0
   14.8289   15.9172    5.8326 H   0  0  0  0  0  0  0  0  0  0  0  0
   14.0457   17.1302    3.9447 H   0  0  0  0  0  0  0  0  0  0  0  0
   16.0633   15.8506    3.8841 H   0  0  0  0  0  0  0  0  0  0  0  0
   12.2990   14.4588    6.2428 H   0  0  0  0  0  0  0  0  0  0  0  0
   11.4398   12.9594    4.7277 H   0  0  0  0  0  0  0  0  0  0  0  0
   11.1125   15.3233    4.3793 H   0  0  0  0  0  0  0  0  0  0  0  0
   17.9429   14.5940   -1.5161 H   0  0  0  0  0  0  0  0  0  0  0  0
   17.0805   13.0282   -3.0645 H   0  0  0  0  0  0  0  0  0  0  0  0
   17.7773   12.3046   -0.9258 H   0  0  0  0  0  0  0  0  0  0  0  0
    9.6801   10.3572    0.1887 H   0  0  0  0  0  0  0  0  0  0  0  0
   10.4915    7.6791    1.0510 H   0  0  0  0  0  0  0  0  0  0  0  0
    9.4355    4.6897   -1.4850 H   0  0  0  0  0  0  0  0  0  0  0  0
    8.5080    7.9432   -1.9434 H   0  0  0  0  0  0  0  0  0  0  0  0
    2.9630    8.9381   -3.0528 H   0  0  0  0  0  0  0  0  0  0  0  0
    4.9715    7.8995   -0.6491 H   0  0  0  0  0  0  0  0  0  0  0  0
    7.0207   18.2496   -0.7576 H   0  0  0  0  0  0  0  0  0  0  0  0
    6.8706   14.5986   -1.0160 H   0  0  0  0  0  0  0  0  0  0  0  0
   13.0883    4.3882    0.6255 H   0  0  0  0  0  0  0  0  0  0  0  0
    6.9812   19.3818   -3.8393 H   0  0  0  0  0  0  0  0  0  0  0  0
   16.1347    4.7837    0.7475 H   0  0  0  0  0  0  0  0  0  0  0  0
   15.4651    5.3186   -1.4477 H   0  0  0  0  0  0  0  0  0  0  0  0
    9.2849   16.1419    0.2519 H   0  0  0  0  0  0  0  0  0  0  0  0
   10.4369   16.3386   -1.7957 H   0  0  0  0  0  0  0  0  0  0  0  0
    4.5079    4.8800    1.3590 H   0  0  0  0  0  0  0  0  0  0  0  0
   16.7416    7.4922    2.9698 H   0  0  0  0  0  0  0  0  0  0  0  0
    6.5951   16.6287   -5.5221 H   0  0  0  0  0  0  0  0  0  0  0  0
   13.3211    9.0596    1.4774 H   0  0  0  0  0  0  0  0  0  0  0  0
    4.7694   13.1716   -1.9020 H   0  0  0  0  0  0  0  0  0  0  0  0
    6.8205   11.4674   -0.0125 H   0  0  0  0  0  0  0  0  0  0  0  0
    6.6760    9.7022   -1.5319 H   0  0  0  0  0  0  0  0  0  0  0  0
    1.3149    4.1375   -1.2079 H   0  0  0  0  0  0  0  0  0  0  0  0
   15.6348    9.8832   -0.6366 H   0  0  0  0  0  0  0  0  0  0  0  0
    3.2520    9.1288    1.5145 H   0  0  0  0  0  0  0  0  0  0  0  0
    9.0351   18.1461   -5.7217 H   0  0  0  0  0  0  0  0  0  0  0  0
   16.5000   10.4540    3.1812 H   0  0  0  0  0  0  0  0  0  0  0  0
    3.4926    4.1213   -3.5120 H   0  0  0  0  0  0  0  0  0  0  0  0
    4.8032    6.0838   -3.5628 H   0  0  0  0  0  0  0  0  0  0  0  0
    2.4560    6.1729   -3.8430 H   0  0  0  0  0  0  0  0  0  0  0  0
    8.1915   12.3714   -4.9933 H   0  0  0  0  0  0  0  0  0  0  0  0
    8.1400   10.0857   -4.6209 H   0  0  0  0  0  0  0  0  0  0  0  0
   10.1971   11.3109   -4.6080 H   0  0  0  0  0  0  0  0  0  0  0  0
    8.7840    3.0953    1.6057 H   0  0  0  0  0  0  0  0  0  0  0  0
   10.4164    4.5282    2.4578 H   0  0  0  0  0  0  0  0  0  0  0  0
   10.8853    2.9522    0.7029 H   0  0  0  0  0  0  0  0  0  0  0  0
   10.8596    6.3396   -3.6713 H   0  0  0  0  0  0  0  0  0  0  0  0
   12.2187    8.2624   -3.5345 H   0  0  0  0  0  0  0  0  0  0  0  0
   10.1731    8.2788   -4.6737 H   0  0  0  0  0  0  0  0  0  0  0  0
    0.1476   10.4222   -2.1483 H   0  0  0  0  0  0  0  0  0  0  0  0
    0.2599    9.3906   -0.0293 H   0  0  0  0  0  0  0  0  0  0  0  0
    0.0000    8.0825   -1.9826 H   0  0  0  0  0  0  0  0  0  0  0  0
   18.9873    8.6541   -0.1827 H   0  0  0  0  0  0  0  0  0  0  0  0
   18.5399    6.8000   -1.5723 H   0  0  0  0  0  0  0  0  0  0  0  0
   18.9586    6.4742    0.7327 H   0  0  0  0  0  0  0  0  0  0  0  0
    4.1333    2.1279   -1.5786 H   0  0  0  0  0  0  0  0  0  0  0  0
    2.7564    2.3661    0.3204 H   0  0  0  0  0  0  0  0  0  0  0  0
    4.0444   15.4893   -3.8954 H   0  0  0  0  0  0  0  0  0  0  0  0
    4.1110   17.8366   -3.7842 H   0  0  0  0  0  0  0  0  0  0  0  0
    4.7320   16.5652   -1.9046 H   0  0  0  0  0  0  0  0  0  0  0  0
   14.1388   10.2486    4.4924 H   0  0  0  0  0  0  0  0  0  0  0  0
   14.3374    8.0305    5.2878 H   0  0  0  0  0  0  0  0  0  0  0  0
   12.2371    8.8580    4.5748 H   0  0  0  0  0  0  0  0  0  0  0  0
    5.3829   12.4941   -4.9593 H   0  0  0  0  0  0  0  0  0  0  0  0
    3.2563   11.7049   -4.4933 H   0  0  0  0  0  0  0  0  0  0  0  0
    5.0698   10.1768   -4.6224 H   0  0  0  0  0  0  0  0  0  0  0  0
    9.5328   22.4191   -0.9737 H   0  0  0  0  0  0  0  0  0  0  0  0
    7.3442   21.5005   -0.8306 H   0  0  0  0  0  0  0  0  0  0  0  0
    8.5634   21.5438   -2.8856 H   0  0  0  0  0  0  0  0  0  0  0  0
   10.7065   20.7226    1.2010 H   0  0  0  0  0  0  0  0  0  0  0  0
   10.7040   18.4064    1.1558 H   0  0  0  0  0  0  0  0  0  0  0  0
    8.6845   19.5716    1.6812 H   0  0  0  0  0  0  0  0  0  0  0  0
    4.8524    0.0000    0.8829 H   0  0  0  0  0  0  0  0  0  0  0  0
    5.4620    1.8216    2.2639 H   0  0  0  0  0  0  0  0  0  0  0  0
    6.6906    1.3372    0.2882 H   0  0  0  0  0  0  0  0  0  0  0  0
  1  2  1  1  0  0  0
  1  3  1  0  0  0  0
  1  5  1  0  0  0  0
  1 62  1  6  0  0  0
  2  4  1  0  0  0  0
  2  9  1  0  0  0  0
  2 63  1  1  0  0  0
  3 13  1  0  0  0  0
  4  6  1  0  0  0  0
  4  7  1  1  0  0  0
  4 64  1  0  0  0  0
  5  8  1  0  0  0  0
  6  8  1  6  0  0  0
  6 65  1  1  0  0  0
  6 66  1  0  0  0  0
  7 10  1  0  0  0  0
  7 11  1  1  0  0  0
  8 12  1  0  0  0  0
  8 67  1  6  0  0  0
  9 68  1  1  0  0  0
 10 69  1  1  0  0  0
 10 70  1  0  0  0  0
 10 71  1  0  0  0  0
 11 72  1  1  0  0  0
 11 73  1  0  0  0  0
 11 74  1  0  0  0  0
 12 75  1  0  0  0  0
 12 76  1  6  0  0  0
 12 77  1  1  0  0  0
 13 16  1  6  0  0  0
 13 19  1  0  0  0  0
 13 78  1  1  0  0  0
 14 18  1  0  0  0  0
 14 19  1  6  0  0  0
 14 37  1  0  0  0  0
 14 79  1  1  0  0  0
 15 18  1  0  0  0  0
 15 21  1  6  0  0  0
 15 42  2  0  0  0  0
 16 36  1  0  0  0  0
 16 40  1  0  0  0  0
 16 50  1  6  0  0  0
 17 22  1  0  0  0  0
 17 33  1  1  0  0  0
 17 44  1  0  0  0  0
 17 49  1  6  0  0  0
 18 51  1  1  0  0  0
 18 80  1  6  0  0  0
 19 52  1  6  0  0  0
 19 81  1  0  0  0  0
 20 22  1  1  0  0  0
 20 23  1  0  0  0  0
 20 53  1  0  0  0  0
 20 82  1  6  0  0  0
 21 33  1  0  0  0  0
 22 46  1  1  0  0  0
 22 83  1  0  0  0  0
 23 39  1  6  0  0  0
 23 43  2  0  0  0  0
 24 29  1  0  0  0  0
 24 34  1  1  0  0  0
 24 45  1  6  0  0  0
 24 54  1  0  0  0  0
 25 28  1  6  0  0  0
 25 30  1  0  0  0  0
 25 41  1  0  0  0  0
 25 84  1  1  0  0  0
 26 30  1  0  0  0  0
 26 31  1  6  0  0  0
 26 36  1  0  0  0  0
 26 85  1  1  0  0  0
 27 29  1  0  0  0  0
 27 32  1  1  0  0  0
 27 37  1  6  0  0  0
 27 86  1  0  0  0  0
 28 35  1  0  0  0  0
 28 47  1  6  0  0  0
 28 87  1  0  0  0  0
 29 88  1  1  0  0  0
 29 89  1  6  0  0  0
 30 90  1  1  0  0  0
 30 91  1  0  0  0  0
 31 35  1  0  0  0  0
 32 38  1  0  0  0  0
 33 55  1  0  0  0  0
 33 92  1  1  0  0  0
 34 38  1  0  0  0  0
 34 48  1  0  0  0  0
 34 93  1  1  0  0  0
 35 56  1  0  0  0  0
 35 94  1  6  0  0  0
 38 57  1  1  0  0  0
 38 95  1  6  0  0  0
 39 40  1  0  0  0  0
 39 58  1  6  0  0  0
 39 96  1  0  0  0  0
 40 97  1  1  0  0  0
 40 98  1  0  0  0  0
 41 59  1  0  0  0  0
 41 60  1  1  0  0  0
 44 99  1  0  0  0  0
 45100  1  0  0  0  0
 46101  1  0  0  0  0
 47102  1  6  0  0  0
 48103  1  1  0  0  0
 49104  1  0  0  0  0
 49105  1  0  0  0  0
 49106  1  6  0  0  0
 50107  1  6  0  0  0
 50108  1  0  0  0  0
 50109  1  0  0  0  0
 51110  1  0  0  0  0
 51111  1  1  0  0  0
 51112  1  0  0  0  0
 52113  1  0  0  0  0
 52114  1  0  0  0  0
 52115  1  6  0  0  0
 53116  1  6  0  0  0
 53117  1  1  0  0  0
 53118  1  0  0  0  0
 54119  1  0  0  0  0
 54120  1  6  0  0  0
 54121  1  1  0  0  0
 55 61  1  1  0  0  0
 55122  1  6  0  0  0
 55123  1  0  0  0  0
 56124  1  0  0  0  0
 56125  1  0  0  0  0
 56126  1  1  0  0  0
 57127  1  0  0  0  0
 57128  1  1  0  0  0
 57129  1  0  0  0  0
 58130  1  6  0  0  0
 58131  1  0  0  0  0
 58132  1  0  0  0  0
 59133  1  0  0  0  0
 59134  1  0  0  0  0
 59135  1  6  0  0  0
 60136  1  0  0  0  0
 60137  1  0  0  0  0
 60138  1  1  0  0  0
 61139  1  0  0  0  0
 61140  1  1  0  0  0
 61141  1  0  0  0  0
M  END
>  <Formula> (271)
C44H80N2O15

>  <Name> (271)
MEGALOMICIN A

>  <CAS-Nr> (271)
28022-11-9

>  <Compound classification> (271)
AB-Macr

>  <Microorganism> (271)
Streptococcus pneumoniae

>  <Microorganism type> (271)
DA 700

>  <Publication strain name> (271)
Diplococcus pneumoniae

>  <Microorganism classification> (271)
Bac+

>  <MIC> (271)
1.2

>  <Method abbreviation> (271)
SDT

>  <Ref-Nr> (271)
7334

>  <Marker> (271)
0

>  <Method> (271)
Serial dilution test; Inoculum size: ---; Medium: yeast-beef broth; pH: 8.0; Incubation-temperature: -- degrees Centigrade; Incubation-time: ---; Solubility enhancer: ---

>  <Reference> (271)
Scherico Ltd.: Megalomicin Complex and Methods for Its Production; GB 1,229,835 (1971)

>  <mol_id> (271)
4862

>  <LD50-mouse-oral> (271)
7500

>  <LD50-mou-ip> (271)
350

>  <MolWeight> (271)
877.12

>  <Nickname> (271)
Megalomicin A

>  <other Names> (271)
Megalomicin, Megalomicin A, Antibiotic W-847-A, Antibiotic XK 41C, Megalomicina, Megalomicine, Megalomicinum, Megalomycin-A, Piperacilina, Piperacillin, Piperacillina, Piperacilline, Piperacillinum

$$$$
>  <Name> (272)
SHINCOMYCIN A

>  <CAS-Nr> (272)
11053-04-6

>  <Compound classification> (272)
AB-0000

>  <Microorganism> (272)
Klebsiella pneumoniae

>  <Microorganism classification> (272)
Bac-

>  <MIC> (272)
100

>  <Method abbreviation> (272)
ADlT

>  <Ref-Nr> (272)
7365

>  <Marker> (272)
0

>  <Method> (272)
Agar dilution test; Inoculum size: ---; Medium: nutrient agar (?), blood agar, PPLO agar (Mycobacteria); pH: ---; Incubation-temperature: -- degrees Centigrade; Incubation-time: ---; Solubility enhancer: ---

>  <Reference> (272)
Ishida, N., Nishimura, N.: Antibiotic Shincomycin and Production Thereof; US 3,534,138 (1970)

>  <mol_id> (272)
4837

>  <LD50-mou-ip> (272)
950

>  <Nickname> (272)
Shincomycin A

>  <other Names> (272)
Shincomycin A

>  <LD50-mou-iv> (272)
450

$$$$
>  <Name> (273)
SHINCOMYCIN A

>  <CAS-Nr> (273)
11053-04-6

>  <Compound classification> (273)
AB-0000

>  <Microorganism> (273)
Neisseria flava

>  <Microorganism classification> (273)
Bac-

>  <MIC> (273)
3.2

>  <Method abbreviation> (273)
ADlT

>  <Ref-Nr> (273)
7365

>  <Marker> (273)
0

>  <Method> (273)
Agar dilution test; Inoculum size: ---; Medium: nutrient agar (?), blood agar, PPLO agar (Mycobacteria); pH: ---; Incubation-temperature: -- degrees Centigrade; Incubation-time: ---; Solubility enhancer: ---

>  <Reference> (273)
Ishida, N., Nishimura, N.: Antibiotic Shincomycin and Production Thereof; US 3,534,138 (1970)

>  <mol_id> (273)
4837

>  <LD50-mou-ip> (273)
950

>  <Nickname> (273)
Shincomycin A

>  <other Names> (273)
Shincomycin A

>  <LD50-mou-iv> (273)
450

$$$$
>  <Name> (274)
SHINCOMYCIN A

>  <CAS-Nr> (274)
11053-04-6

>  <Compound classification> (274)
AB-0000

>  <Microorganism> (274)
Providencia rettgeri

>  <Publication strain name> (274)
Proteus rettgeri

>  <Microorganism classification> (274)
Bac-

>  <NIC> (274)
100

>  <Method abbreviation> (274)
ADlT

>  <Ref-Nr> (274)
7365

>  <Marker> (274)
0

>  <Method> (274)
Agar dilution test; Inoculum size: ---; Medium: nutrient agar (?), blood agar, PPLO agar (Mycobacteria); pH: ---; Incubation-temperature: -- degrees Centigrade; Incubation-time: ---; Solubility enhancer: ---

>  <Reference> (274)
Ishida, N., Nishimura, N.: Antibiotic Shincomycin and Production Thereof; US 3,534,138 (1970)

>  <mol_id> (274)
4837

>  <LD50-mou-ip> (274)
950

>  <Nickname> (274)
Shincomycin A

>  <other Names> (274)
Shincomycin A

>  <LD50-mou-iv> (274)
450

$$$$
>  <Name> (275)
SHINCOMYCIN A

>  <CAS-Nr> (275)
11053-04-6

>  <Compound classification> (275)
AB-0000

>  <Microorganism> (275)
Pseudomonas aeruginosa

>  <Microorganism classification> (275)
Bac-

>  <NIC> (275)
100

>  <Method abbreviation> (275)
ADlT

>  <Ref-Nr> (275)
7365

>  <Marker> (275)
0

>  <Method> (275)
Agar dilution test; Inoculum size: ---; Medium: nutrient agar (?), blood agar, PPLO agar (Mycobacteria); pH: ---; Incubation-temperature: -- degrees Centigrade; Incubation-time: ---; Solubility enhancer: ---

>  <Reference> (275)
Ishida, N., Nishimura, N.: Antibiotic Shincomycin and Production Thereof; US 3,534,138 (1970)

>  <mol_id> (275)
4837

>  <LD50-mou-ip> (275)
950

>  <Nickname> (275)
Shincomycin A

>  <other Names> (275)
Shincomycin A

>  <LD50-mou-iv> (275)
450

$$$$
>  <Name> (276)
SHINCOMYCIN A

>  <CAS-Nr> (276)
11053-04-6

>  <Compound classification> (276)
AB-0000

>  <Microorganism> (276)
Salmonella enterica subsp. enterica serovar Paratyphi B

>  <Publication strain name> (276)
Salmonella paratyphi type B

>  <Microorganism classification> (276)
Bac-

>  <NIC> (276)
100

>  <Method abbreviation> (276)
ADlT

>  <Ref-Nr> (276)
7365

>  <Marker> (276)
0

>  <Method> (276)
Agar dilution test; Inoculum size: ---; Medium: nutrient agar (?), blood agar, PPLO agar (Mycobacteria); pH: ---; Incubation-temperature: -- degrees Centigrade; Incubation-time: ---; Solubility enhancer: ---

>  <Reference> (276)
Ishida, N., Nishimura, N.: Antibiotic Shincomycin and Production Thereof; US 3,534,138 (1970)

>  <mol_id> (276)
4837

>  <LD50-mou-ip> (276)
950

>  <Nickname> (276)
Shincomycin A

>  <other Names> (276)
Shincomycin A

>  <LD50-mou-iv> (276)
450

$$$$
>  <Name> (277)
COPIAMYCIN

>  <CAS-Nr> (277)
11078-23-2

>  <Compound classification> (277)
AB-0000

>  <Microorganism> (277)
Torula rubra

>  <Microorganism classification> (277)
yeast

>  <MIC> (277)
2.5

>  <Method abbreviation> (277)
ADlT

>  <Ref-Nr> (277)
7367

>  <Marker> (277)
0

>  <Method> (277)
Agar dilution test; Inoculum size: ---; Medium: nutrient agar (bacteria), Czapek and Sabouraud agar (fungi); pH: ---; Incubation-temperature: 27,37 degrees Centigrade; Incubation-time: 24h, 72h (fungi, 24h and 120h data omitted); Solubility enhancer: ---

>  <Reference> (277)
Arai, T.: Antibiotic Copiamycin; US 3,627,880 (1971)

>  <mol_id> (277)
4823

>  <LD50-mouse-oral> (277)
1030

>  <LD50-mou-ip> (277)
1200

>  <Nickname> (277)
Copiamycin

>  <other Names> (277)
Copiamycin, NSC-110326

$$$$
>  <Name> (278)
COPIAMYCIN

>  <CAS-Nr> (278)
11078-23-2

>  <Compound classification> (278)
AB-0000

>  <Microorganism> (278)
Trichosporon cutaneum

>  <Microorganism type> (278)
IFO 0116

>  <Microorganism classification> (278)
yeast

>  <MIC> (278)
0.5

>  <Method abbreviation> (278)
ADlT

>  <Ref-Nr> (278)
7367

>  <Marker> (278)
0

>  <Method> (278)
Agar dilution test; Inoculum size: ---; Medium: nutrient agar (bacteria), Czapek and Sabouraud agar (fungi); pH: ---; Incubation-temperature: 27,37 degrees Centigrade; Incubation-time: 24h, 72h (fungi, 24h and 120h data omitted); Solubility enhancer: ---

>  <Reference> (278)
Arai, T.: Antibiotic Copiamycin; US 3,627,880 (1971)

>  <mol_id> (278)
4823

>  <LD50-mouse-oral> (278)
1030

>  <LD50-mou-ip> (278)
1200

>  <Nickname> (278)
Copiamycin

>  <other Names> (278)
Copiamycin, NSC-110326

$$$$
>  <Name> (279)
COPIAMYCIN

>  <CAS-Nr> (279)
11078-23-2

>  <Compound classification> (279)
AB-0000

>  <Microorganism> (279)
Zygosaccharomyces sanken

>  <Microorganism classification> (279)
yeast

>  <MIC> (279)
10

>  <Method abbreviation> (279)
ADlT

>  <Ref-Nr> (279)
7367

>  <Marker> (279)
0

>  <Method> (279)
Agar dilution test; Inoculum size: ---; Medium: nutrient agar (bacteria), Czapek and Sabouraud agar (fungi); pH: ---; Incubation-temperature: 27,37 degrees Centigrade; Incubation-time: 24h, 72h (fungi, 24h and 120h data omitted); Solubility enhancer: ---

>  <Reference> (279)
Arai, T.: Antibiotic Copiamycin; US 3,627,880 (1971)

>  <mol_id> (279)
4823

>  <LD50-mouse-oral> (279)
1030

>  <LD50-mou-ip> (279)
1200

>  <Nickname> (279)
Copiamycin

>  <other Names> (279)
Copiamycin, NSC-110326

$$$$

csChmFindW11180110282D

 74 77  0  0  0  0  0  0  0  0999 V2000
    0.9667   14.1445   -3.0546 C   0  0  0  0  0  0  0  0  0  0  0  0
    1.1281   12.1985   -2.9796 C   0  0  0  0  0  0  0  0  0  0  0  0
    2.8723   11.4142   -2.3407 C   0  0  0  0  0  0  0  0  0  0  0  0
    4.0201   12.6607   -1.2823 C   0  0  0  0  0  0  0  0  0  0  0  0
    3.9022   14.4325   -1.3706 C   0  0  0  0  0  0  0  0  0  0  0  0
    2.4849   15.2096   -2.4998 C   0  0  0  0  0  0  0  0  0  0  0  0
    2.5749   16.7854   -2.8664 O   0  0  0  0  0  0  0  0  0  0  0  0
    0.1163   13.1403   -1.6764 O   0  0  0  0  0  0  0  0  0  0  0  0
    2.4884    9.8975   -1.2816 O   0  0  0  0  0  0  0  0  0  0  0  0
    4.9523   15.6079   -0.5419 N   0  0  0  0  0  0  0  0  0  0  0  0
    6.3664   15.4073    0.5543 C   0  0  0  0  0  0  0  0  0  0  0  0
    7.1425   17.1185    1.0862 C   0  0  0  0  0  0  0  0  0  0  0  0
    6.9347   13.9691    1.0248 O   0  0  0  0  0  0  0  0  0  0  0  0
    8.6246   17.1639    2.0933 C   0  0  0  0  0  0  0  0  0  0  0  0
    9.4573   18.8262    2.6251 C   0  0  0  0  0  0  0  0  0  0  0  0
   10.9549   18.8467    3.6078 C   0  0  0  0  0  0  0  0  0  0  0  0
   11.8279   20.4927    4.1357 C   0  0  0  0  0  0  0  0  0  0  0  0
   13.3267   20.4844    5.1014 C   0  0  0  0  0  0  0  0  0  0  0  0
   14.2988   22.1331    5.6811 C   0  0  0  0  0  0  0  0  0  0  0  0
    4.0065   10.8670   -3.8968 C   0  0  0  0  0  0  0  0  0  0  0  0
    5.2440    9.5847   -3.8411 C   0  0  0  0  0  0  0  0  0  0  0  0
    6.3554    9.1844   -5.3756 C   0  0  0  0  0  0  0  0  0  0  0  0
    7.5883    7.8846   -5.3494 C   0  0  0  0  0  0  0  0  0  0  0  0
    8.7153    7.5262   -6.8794 C   0  0  0  0  0  0  0  0  0  0  0  0
    9.9225    6.2010   -6.8804 C   0  0  0  0  0  0  0  0  0  0  0  0
   11.0420    5.8859   -8.4495 C   0  0  0  0  0  0  0  0  0  0  0  0
   12.0222    4.3854   -8.2979 N   0  0  0  0  0  0  0  0  0  0  0  0
   11.0801    6.8546   -9.7424 O   0  0  0  0  0  0  0  0  0  0  0  0
   13.2171    3.6175   -9.3633 C   0  0  0  0  0  0  0  0  0  0  0  0
   13.9192    4.0830  -10.9270 C   0  0  0  0  0  0  0  0  0  0  0  0
   15.2466    2.7572  -11.6065 C   0  0  0  0  0  0  0  0  0  0  0  0
   15.2337    1.2645  -10.2207 C   0  0  0  0  0  0  0  0  0  0  0  0
   13.9645    1.8961   -8.8055 C   0  0  0  0  0  0  0  0  0  0  0  0
   13.6040    5.5836  -11.8540 O   0  0  0  0  0  0  0  0  0  0  0  0
   13.5716    1.1585   -7.4225 O   0  0  0  0  0  0  0  0  0  0  0  0
   14.3391   22.2927    7.7084 C   0  0  0  0  0  0  0  0  0  0  0  0
   15.5644   20.9259    8.5757 C   0  0  0  0  0  0  0  0  0  0  0  0
   17.4386   21.0388    7.8066 C   0  0  0  0  0  0  0  0  0  0  0  0
   17.4149   20.8196    5.7895 C   0  0  0  0  0  0  0  0  0  0  0  0
   16.1862   22.1844    4.9239 C   0  0  0  0  0  0  0  0  0  0  0  0
    0.0000   14.7491   -3.9453 H   0  0  0  0  0  0  0  0  0  0  0  0
    0.2731   11.3646   -3.7963 H   0  0  0  0  0  0  0  0  0  0  0  0
    5.0490   12.0224   -0.4765 H   0  0  0  0  0  0  0  0  0  0  0  0
    3.5870    9.4351   -0.9297 H   0  0  0  0  0  0  0  0  0  0  0  0
    4.5719   16.8465   -0.8719 H   0  0  0  0  0  0  0  0  0  0  0  0
    6.5259   18.3615    0.6415 H   0  0  0  0  0  0  0  0  0  0  0  0
    9.2393   15.9142    2.5218 H   0  0  0  0  0  0  0  0  0  0  0  0
    8.8589   20.0865    2.2046 H   0  0  0  0  0  0  0  0  0  0  0  0
   11.5478   17.5803    4.0195 H   0  0  0  0  0  0  0  0  0  0  0  0
   11.2487   21.7652    3.7281 H   0  0  0  0  0  0  0  0  0  0  0  0
   13.8942   19.2046    5.5006 H   0  0  0  0  0  0  0  0  0  0  0  0
   13.5672   23.3044    5.1503 H   0  0  0  0  0  0  0  0  0  0  0  0
    3.8388   11.6391   -5.1224 H   0  0  0  0  0  0  0  0  0  0  0  0
    5.4486    8.8267   -2.6156 H   0  0  0  0  0  0  0  0  0  0  0  0
    6.1883    9.9772   -6.5871 H   0  0  0  0  0  0  0  0  0  0  0  0
    7.7543    7.0809   -4.1452 H   0  0  0  0  0  0  0  0  0  0  0  0
    8.5708    8.3681   -8.0598 H   0  0  0  0  0  0  0  0  0  0  0  0
   10.0592    5.3397   -5.7132 H   0  0  0  0  0  0  0  0  0  0  0  0
   11.8768    3.6295   -7.2042 H   0  0  0  0  0  0  0  0  0  0  0  0
   16.5706    3.3949  -11.7063 H   0  0  0  0  0  0  0  0  0  0  0  0
   14.8392    2.2731  -12.9364 H   0  0  0  0  0  0  0  0  0  0  0  0
   16.5657    1.0445   -9.6329 H   0  0  0  0  0  0  0  0  0  0  0  0
   14.7314    0.0000  -10.7851 H   0  0  0  0  0  0  0  0  0  0  0  0
   14.4891    5.6978  -12.7762 H   0  0  0  0  0  0  0  0  0  0  0  0
   12.9731   22.1692    8.2508 H   0  0  0  0  0  0  0  0  0  0  0  0
   14.8199   23.6405    8.0708 H   0  0  0  0  0  0  0  0  0  0  0  0
   15.0298   19.5671    8.3788 H   0  0  0  0  0  0  0  0  0  0  0  0
   15.6096   21.1515   10.0333 H   0  0  0  0  0  0  0  0  0  0  0  0
   18.2951   20.0028    8.4150 H   0  0  0  0  0  0  0  0  0  0  0  0
   18.0302   22.3458    8.1497 H   0  0  0  0  0  0  0  0  0  0  0  0
   16.9814   19.4542    5.4454 H   0  0  0  0  0  0  0  0  0  0  0  0
   18.7825   20.9712    5.2563 H   0  0  0  0  0  0  0  0  0  0  0  0
   16.7545   23.5278    5.1518 H   0  0  0  0  0  0  0  0  0  0  0  0
   16.1491   21.9819    3.4634 H   0  0  0  0  0  0  0  0  0  0  0  0
  1  2  1  0  0  0  0
  1  6  1  0  0  0  0
  1  8  1  1  0  0  0
  1 41  1  6  0  0  0
  2  3  1  0  0  0  0
  2  8  1  1  0  0  0
  2 42  1  6  0  0  0
  3  4  1  1  0  0  0
  3  9  1  1  0  0  0
  3 20  1  6  0  0  0
  4  5  2  0  0  0  0
  4 43  1  1  0  0  0
  5  6  1  6  0  0  0
  5 10  1  1  0  0  0
  6  7  2  0  0  0  0
  9 44  1  0  0  0  0
 10 11  1  1  0  0  0
 10 45  1  0  0  0  0
 11 12  1  0  0  0  0
 11 13  2  0  0  0  0
 12 14  2  0  0  0  0
 12 46  1  0  0  0  0
 14 15  1  0  0  0  0
 14 47  1  0  0  0  0
 15 16  2  0  0  0  0
 15 48  1  0  0  0  0
 16 17  1  0  0  0  0
 16 49  1  0  0  0  0
 17 18  2  0  0  0  0
 17 50  1  0  0  0  0
 18 19  1  0  0  0  0
 18 51  1  0  0  0  0
 19 36  1  1  0  0  0
 19 40  1  0  0  0  0
 19 52  1  0  0  0  0
 20 21  2  0  0  0  0
 20 53  1  6  0  0  0
 21 22  1  6  0  0  0
 21 54  1  1  0  0  0
 22 23  2  0  0  0  0
 22 55  1  6  0  0  0
 23 24  1  6  0  0  0
 23 56  1  1  0  0  0
 24 25  2  0  0  0  0
 24 57  1  6  0  0  0
 25 26  1  6  0  0  0
 25 58  1  1  0  0  0
 26 27  1  0  0  0  0
 26 28  2  0  0  0  0
 27 29  1  6  0  0  0
 27 59  1  1  0  0  0
 29 30  2  0  0  0  0
 29 33  1  0  0  0  0
 30 31  1  0  0  0  0
 30 34  1  6  0  0  0
 31 32  1  1  0  0  0
 31 60  1  0  0  0  0
 31 61  1  6  0  0  0
 32 33  1  1  0  0  0
 32 62  1  0  0  0  0
 32 63  1  0  0  0  0
 33 35  2  0  0  0  0
 34 64  1  6  0  0  0
 36 37  1  0  0  0  0
 36 65  1  0  0  0  0
 36 66  1  0  0  0  0
 37 38  1  0  0  0  0
 37 67  1  0  0  0  0
 37 68  1  1  0  0  0
 38 39  1  6  0  0  0
 38 69  1  0  0  0  0
 38 70  1  0  0  0  0
 39 40  1  0  0  0  0
 39 71  1  0  0  0  0
 39 72  1  0  0  0  0
 40 73  1  0  0  0  0
 40 74  1  6  0  0  0
M  END
>  <Formula> (280)
C31H34N2O7

>  <Name> (280)
7-CYCLOHEXYL-N-(5-HYDROXY-5-(7-((2-HYDROXY-5-OXO-1-CYCLOPENTEN-1-YL)AMINO)-7-OXO-1,3,5-HEPTATRIENYL)-2-OXO-7-OXABICYCLO(4.1.0)HEPT-3-EN-3-YL)-2,4,6-HEPTATRIENAMIDE

>  <CAS-Nr> (280)
61116-33-4

>  <Compound classification> (280)
AB-0000

>  <Microorganism> (280)
Bacillus agri

>  <Microorganism classification> (280)
Bac+

>  <MIC> (280)
12.5

>  <Method abbreviation> (280)
ADlT

>  <Ref-Nr> (280)
7407

>  <Marker> (280)
0

>  <Method> (280)
Agar dilution test; Inoculum size: ---; Medium: peptone, meat extract agar (bacteria), Potato dextrose agar(fungi); pH: 6.8-7.0; Incubation-temperature: 27,37 degrees Centigrade; Incubation-time: 18,72h; Solubility enhancer: ---

>  <Reference> (280)
Omura, S., Kitao, C., Nakagawa, A., Tanaka, H., Awaya, J., Oiwa, R.: Antibiotic Composition; US 4,226,879 (1980)

>  <mol_id> (280)
4811

>  <LD50-mouse-oral> (280)
LD >450

>  <LD50-mou-ip> (280)
459

>  <MolWeight> (280)
546.61

>  <Nickname> (280)
Asukamycin

>  <other Names> (280)
AM 1042, Asukamycin, BRN 3639742

$$$$

csChmFindW11180110282D

 74 77  0  0  0  0  0  0  0  0999 V2000
    0.9667   14.1445   -3.0546 C   0  0  0  0  0  0  0  0  0  0  0  0
    1.1281   12.1985   -2.9796 C   0  0  0  0  0  0  0  0  0  0  0  0
    2.8723   11.4142   -2.3407 C   0  0  0  0  0  0  0  0  0  0  0  0
    4.0201   12.6607   -1.2823 C   0  0  0  0  0  0  0  0  0  0  0  0
    3.9022   14.4325   -1.3706 C   0  0  0  0  0  0  0  0  0  0  0  0
    2.4849   15.2096   -2.4998 C   0  0  0  0  0  0  0  0  0  0  0  0
    2.5749   16.7854   -2.8664 O   0  0  0  0  0  0  0  0  0  0  0  0
    0.1163   13.1403   -1.6764 O   0  0  0  0  0  0  0  0  0  0  0  0
    2.4884    9.8975   -1.2816 O   0  0  0  0  0  0  0  0  0  0  0  0
    4.9523   15.6079   -0.5419 N   0  0  0  0  0  0  0  0  0  0  0  0
    6.3664   15.4073    0.5543 C   0  0  0  0  0  0  0  0  0  0  0  0
    7.1425   17.1185    1.0862 C   0  0  0  0  0  0  0  0  0  0  0  0
    6.9347   13.9691    1.0248 O   0  0  0  0  0  0  0  0  0  0  0  0
    8.6246   17.1639    2.0933 C   0  0  0  0  0  0  0  0  0  0  0  0
    9.4573   18.8262    2.6251 C   0  0  0  0  0  0  0  0  0  0  0  0
   10.9549   18.8467    3.6078 C   0  0  0  0  0  0  0  0  0  0  0  0
   11.8279   20.4927    4.1357 C   0  0  0  0  0  0  0  0  0  0  0  0
   13.3267   20.4844    5.1014 C   0  0  0  0  0  0  0  0  0  0  0  0
   14.2988   22.1331    5.6811 C   0  0  0  0  0  0  0  0  0  0  0  0
    4.0065   10.8670   -3.8968 C   0  0  0  0  0  0  0  0  0  0  0  0
    5.2440    9.5847   -3.8411 C   0  0  0  0  0  0  0  0  0  0  0  0
    6.3554    9.1844   -5.3756 C   0  0  0  0  0  0  0  0  0  0  0  0
    7.5883    7.8846   -5.3494 C   0  0  0  0  0  0  0  0  0  0  0  0
    8.7153    7.5262   -6.8794 C   0  0  0  0  0  0  0  0  0  0  0  0
    9.9225    6.2010   -6.8804 C   0  0  0  0  0  0  0  0  0  0  0  0
   11.0420    5.8859   -8.4495 C   0  0  0  0  0  0  0  0  0  0  0  0
   12.0222    4.3854   -8.2979 N   0  0  0  0  0  0  0  0  0  0  0  0
   11.0801    6.8546   -9.7424 O   0  0  0  0  0  0  0  0  0  0  0  0
   13.2171    3.6175   -9.3633 C   0  0  0  0  0  0  0  0  0  0  0  0
   13.9192    4.0830  -10.9270 C   0  0  0  0  0  0  0  0  0  0  0  0
   15.2466    2.7572  -11.6065 C   0  0  0  0  0  0  0  0  0  0  0  0
   15.2337    1.2645  -10.2207 C   0  0  0  0  0  0  0  0  0  0  0  0
   13.9645    1.8961   -8.8055 C   0  0  0  0  0  0  0  0  0  0  0  0
   13.6040    5.5836  -11.8540 O   0  0  0  0  0  0  0  0  0  0  0  0
   13.5716    1.1585   -7.4225 O   0  0  0  0  0  0  0  0  0  0  0  0
   14.3391   22.2927    7.7084 C   0  0  0  0  0  0  0  0  0  0  0  0
   15.5644   20.9259    8.5757 C   0  0  0  0  0  0  0  0  0  0  0  0
   17.4386   21.0388    7.8066 C   0  0  0  0  0  0  0  0  0  0  0  0
   17.4149   20.8196    5.7895 C   0  0  0  0  0  0  0  0  0  0  0  0
   16.1862   22.1844    4.9239 C   0  0  0  0  0  0  0  0  0  0  0  0
    0.0000   14.7491   -3.9453 H   0  0  0  0  0  0  0  0  0  0  0  0
    0.2731   11.3646   -3.7963 H   0  0  0  0  0  0  0  0  0  0  0  0
    5.0490   12.0224   -0.4765 H   0  0  0  0  0  0  0  0  0  0  0  0
    3.5870    9.4351   -0.9297 H   0  0  0  0  0  0  0  0  0  0  0  0
    4.5719   16.8465   -0.8719 H   0  0  0  0  0  0  0  0  0  0  0  0
    6.5259   18.3615    0.6415 H   0  0  0  0  0  0  0  0  0  0  0  0
    9.2393   15.9142    2.5218 H   0  0  0  0  0  0  0  0  0  0  0  0
    8.8589   20.0865    2.2046 H   0  0  0  0  0  0  0  0  0  0  0  0
   11.5478   17.5803    4.0195 H   0  0  0  0  0  0  0  0  0  0  0  0
   11.2487   21.7652    3.7281 H   0  0  0  0  0  0  0  0  0  0  0  0
   13.8942   19.2046    5.5006 H   0  0  0  0  0  0  0  0  0  0  0  0
   13.5672   23.3044    5.1503 H   0  0  0  0  0  0  0  0  0  0  0  0
    3.8388   11.6391   -5.1224 H   0  0  0  0  0  0  0  0  0  0  0  0
    5.4486    8.8267   -2.6156 H   0  0  0  0  0  0  0  0  0  0  0  0
    6.1883    9.9772   -6.5871 H   0  0  0  0  0  0  0  0  0  0  0  0
    7.7543    7.0809   -4.1452 H   0  0  0  0  0  0  0  0  0  0  0  0
    8.5708    8.3681   -8.0598 H   0  0  0  0  0  0  0  0  0  0  0  0
   10.0592    5.3397   -5.7132 H   0  0  0  0  0  0  0  0  0  0  0  0
   11.8768    3.6295   -7.2042 H   0  0  0  0  0  0  0  0  0  0  0  0
   16.5706    3.3949  -11.7063 H   0  0  0  0  0  0  0  0  0  0  0  0
   14.8392    2.2731  -12.9364 H   0  0  0  0  0  0  0  0  0  0  0  0
   16.5657    1.0445   -9.6329 H   0  0  0  0  0  0  0  0  0  0  0  0
   14.7314    0.0000  -10.7851 H   0  0  0  0  0  0  0  0  0  0  0  0
   14.4891    5.6978  -12.7762 H   0  0  0  0  0  0  0  0  0  0  0  0
   12.9731   22.1692    8.2508 H   0  0  0  0  0  0  0  0  0  0  0  0
   14.8199   23.6405    8.0708 H   0  0  0  0  0  0  0  0  0  0  0  0
   15.0298   19.5671    8.3788 H   0  0  0  0  0  0  0  0  0  0  0  0
   15.6096   21.1515   10.0333 H   0  0  0  0  0  0  0  0  0  0  0  0
   18.2951   20.0028    8.4150 H   0  0  0  0  0  0  0  0  0  0  0  0
   18.0302   22.3458    8.1497 H   0  0  0  0  0  0  0  0  0  0  0  0
   16.9814   19.4542    5.4454 H   0  0  0  0  0  0  0  0  0  0  0  0
   18.7825   20.9712    5.2563 H   0  0  0  0  0  0  0  0  0  0  0  0
   16.7545   23.5278    5.1518 H   0  0  0  0  0  0  0  0  0  0  0  0
   16.1491   21.9819    3.4634 H   0  0  0  0  0  0  0  0  0  0  0  0
  1  2  1  0  0  0  0
  1  6  1  0  0  0  0
  1  8  1  1  0  0  0
  1 41  1  6  0  0  0
  2  3  1  0  0  0  0
  2  8  1  1  0  0  0
  2 42  1  6  0  0  0
  3  4  1  1  0  0  0
  3  9  1  1  0  0  0
  3 20  1  6  0  0  0
  4  5  2  0  0  0  0
  4 43  1  1  0  0  0
  5  6  1  6  0  0  0
  5 10  1  1  0  0  0
  6  7  2  0  0  0  0
  9 44  1  0  0  0  0
 10 11  1  1  0  0  0
 10 45  1  0  0  0  0
 11 12  1  0  0  0  0
 11 13  2  0  0  0  0
 12 14  2  0  0  0  0
 12 46  1  0  0  0  0
 14 15  1  0  0  0  0
 14 47  1  0  0  0  0
 15 16  2  0  0  0  0
 15 48  1  0  0  0  0
 16 17  1  0  0  0  0
 16 49  1  0  0  0  0
 17 18  2  0  0  0  0
 17 50  1  0  0  0  0
 18 19  1  0  0  0  0
 18 51  1  0  0  0  0
 19 36  1  1  0  0  0
 19 40  1  0  0  0  0
 19 52  1  0  0  0  0
 20 21  2  0  0  0  0
 20 53  1  6  0  0  0
 21 22  1  6  0  0  0
 21 54  1  1  0  0  0
 22 23  2  0  0  0  0
 22 55  1  6  0  0  0
 23 24  1  6  0  0  0
 23 56  1  1  0  0  0
 24 25  2  0  0  0  0
 24 57  1  6  0  0  0
 25 26  1  6  0  0  0
 25 58  1  1  0  0  0
 26 27  1  0  0  0  0
 26 28  2  0  0  0  0
 27 29  1  6  0  0  0
 27 59  1  1  0  0  0
 29 30  2  0  0  0  0
 29 33  1  0  0  0  0
 30 31  1  0  0  0  0
 30 34  1  6  0  0  0
 31 32  1  1  0  0  0
 31 60  1  0  0  0  0
 31 61  1  6  0  0  0
 32 33  1  1  0  0  0
 32 62  1  0  0  0  0
 32 63  1  0  0  0  0
 33 35  2  0  0  0  0
 34 64  1  6  0  0  0
 36 37  1  0  0  0  0
 36 65  1  0  0  0  0
 36 66  1  0  0  0  0
 37 38  1  0  0  0  0
 37 67  1  0  0  0  0
 37 68  1  1  0  0  0
 38 39  1  6  0  0  0
 38 69  1  0  0  0  0
 38 70  1  0  0  0  0
 39 40  1  0  0  0  0
 39 71  1  0  0  0  0
 39 72  1  0  0  0  0
 40 73  1  0  0  0  0
 40 74  1  6  0  0  0
M  END
>  <Formula> (281)
C31H34N2O7

>  <Name> (281)
7-CYCLOHEXYL-N-(5-HYDROXY-5-(7-((2-HYDROXY-5-OXO-1-CYCLOPENTEN-1-YL)AMINO)-7-OXO-1,3,5-HEPTATRIENYL)-2-OXO-7-OXABICYCLO(4.1.0)HEPT-3-EN-3-YL)-2,4,6-HEPTATRIENAMIDE

>  <CAS-Nr> (281)
61116-33-4

>  <Compound classification> (281)
AB-0000

>  <Microorganism> (281)
Bacillus anthracis

>  <Microorganism classification> (281)
Bac+

>  <MIC> (281)
12.5

>  <Method abbreviation> (281)
ADlT

>  <Ref-Nr> (281)
7407

>  <Marker> (281)
0

>  <Method> (281)
Agar dilution test; Inoculum size: ---; Medium: peptone, meat extract agar (bacteria), Potato dextrose agar(fungi); pH: 6.8-7.0; Incubation-temperature: 27,37 degrees Centigrade; Incubation-time: 18,72h; Solubility enhancer: ---

>  <Reference> (281)
Omura, S., Kitao, C., Nakagawa, A., Tanaka, H., Awaya, J., Oiwa, R.: Antibiotic Composition; US 4,226,879 (1980)

>  <mol_id> (281)
4811

>  <LD50-mouse-oral> (281)
LD >450

>  <LD50-mou-ip> (281)
459

>  <MolWeight> (281)
546.61

>  <Nickname> (281)
Asukamycin

>  <other Names> (281)
AM 1042, Asukamycin, BRN 3639742

$$$$

csChmFindW11180110282D

 74 77  0  0  0  0  0  0  0  0999 V2000
    0.9667   14.1445   -3.0546 C   0  0  0  0  0  0  0  0  0  0  0  0
    1.1281   12.1985   -2.9796 C   0  0  0  0  0  0  0  0  0  0  0  0
    2.8723   11.4142   -2.3407 C   0  0  0  0  0  0  0  0  0  0  0  0
    4.0201   12.6607   -1.2823 C   0  0  0  0  0  0  0  0  0  0  0  0
    3.9022   14.4325   -1.3706 C   0  0  0  0  0  0  0  0  0  0  0  0
    2.4849   15.2096   -2.4998 C   0  0  0  0  0  0  0  0  0  0  0  0
    2.5749   16.7854   -2.8664 O   0  0  0  0  0  0  0  0  0  0  0  0
    0.1163   13.1403   -1.6764 O   0  0  0  0  0  0  0  0  0  0  0  0
    2.4884    9.8975   -1.2816 O   0  0  0  0  0  0  0  0  0  0  0  0
    4.9523   15.6079   -0.5419 N   0  0  0  0  0  0  0  0  0  0  0  0
    6.3664   15.4073    0.5543 C   0  0  0  0  0  0  0  0  0  0  0  0
    7.1425   17.1185    1.0862 C   0  0  0  0  0  0  0  0  0  0  0  0
    6.9347   13.9691    1.0248 O   0  0  0  0  0  0  0  0  0  0  0  0
    8.6246   17.1639    2.0933 C   0  0  0  0  0  0  0  0  0  0  0  0
    9.4573   18.8262    2.6251 C   0  0  0  0  0  0  0  0  0  0  0  0
   10.9549   18.8467    3.6078 C   0  0  0  0  0  0  0  0  0  0  0  0
   11.8279   20.4927    4.1357 C   0  0  0  0  0  0  0  0  0  0  0  0
   13.3267   20.4844    5.1014 C   0  0  0  0  0  0  0  0  0  0  0  0
   14.2988   22.1331    5.6811 C   0  0  0  0  0  0  0  0  0  0  0  0
    4.0065   10.8670   -3.8968 C   0  0  0  0  0  0  0  0  0  0  0  0
    5.2440    9.5847   -3.8411 C   0  0  0  0  0  0  0  0  0  0  0  0
    6.3554    9.1844   -5.3756 C   0  0  0  0  0  0  0  0  0  0  0  0
    7.5883    7.8846   -5.3494 C   0  0  0  0  0  0  0  0  0  0  0  0
    8.7153    7.5262   -6.8794 C   0  0  0  0  0  0  0  0  0  0  0  0
    9.9225    6.2010   -6.8804 C   0  0  0  0  0  0  0  0  0  0  0  0
   11.0420    5.8859   -8.4495 C   0  0  0  0  0  0  0  0  0  0  0  0
   12.0222    4.3854   -8.2979 N   0  0  0  0  0  0  0  0  0  0  0  0
   11.0801    6.8546   -9.7424 O   0  0  0  0  0  0  0  0  0  0  0  0
   13.2171    3.6175   -9.3633 C   0  0  0  0  0  0  0  0  0  0  0  0
   13.9192    4.0830  -10.9270 C   0  0  0  0  0  0  0  0  0  0  0  0
   15.2466    2.7572  -11.6065 C   0  0  0  0  0  0  0  0  0  0  0  0
   15.2337    1.2645  -10.2207 C   0  0  0  0  0  0  0  0  0  0  0  0
   13.9645    1.8961   -8.8055 C   0  0  0  0  0  0  0  0  0  0  0  0
   13.6040    5.5836  -11.8540 O   0  0  0  0  0  0  0  0  0  0  0  0
   13.5716    1.1585   -7.4225 O   0  0  0  0  0  0  0  0  0  0  0  0
   14.3391   22.2927    7.7084 C   0  0  0  0  0  0  0  0  0  0  0  0
   15.5644   20.9259    8.5757 C   0  0  0  0  0  0  0  0  0  0  0  0
   17.4386   21.0388    7.8066 C   0  0  0  0  0  0  0  0  0  0  0  0
   17.4149   20.8196    5.7895 C   0  0  0  0  0  0  0  0  0  0  0  0
   16.1862   22.1844    4.9239 C   0  0  0  0  0  0  0  0  0  0  0  0
    0.0000   14.7491   -3.9453 H   0  0  0  0  0  0  0  0  0  0  0  0
    0.2731   11.3646   -3.7963 H   0  0  0  0  0  0  0  0  0  0  0  0
    5.0490   12.0224   -0.4765 H   0  0  0  0  0  0  0  0  0  0  0  0
    3.5870    9.4351   -0.9297 H   0  0  0  0  0  0  0  0  0  0  0  0
    4.5719   16.8465   -0.8719 H   0  0  0  0  0  0  0  0  0  0  0  0
    6.5259   18.3615    0.6415 H   0  0  0  0  0  0  0  0  0  0  0  0
    9.2393   15.9142    2.5218 H   0  0  0  0  0  0  0  0  0  0  0  0
    8.8589   20.0865    2.2046 H   0  0  0  0  0  0  0  0  0  0  0  0
   11.5478   17.5803    4.0195 H   0  0  0  0  0  0  0  0  0  0  0  0
   11.2487   21.7652    3.7281 H   0  0  0  0  0  0  0  0  0  0  0  0
   13.8942   19.2046    5.5006 H   0  0  0  0  0  0  0  0  0  0  0  0
   13.5672   23.3044    5.1503 H   0  0  0  0  0  0  0  0  0  0  0  0
    3.8388   11.6391   -5.1224 H   0  0  0  0  0  0  0  0  0  0  0  0
    5.4486    8.8267   -2.6156 H   0  0  0  0  0  0  0  0  0  0  0  0
    6.1883    9.9772   -6.5871 H   0  0  0  0  0  0  0  0  0  0  0  0
    7.7543    7.0809   -4.1452 H   0  0  0  0  0  0  0  0  0  0  0  0
    8.5708    8.3681   -8.0598 H   0  0  0  0  0  0  0  0  0  0  0  0
   10.0592    5.3397   -5.7132 H   0  0  0  0  0  0  0  0  0  0  0  0
   11.8768    3.6295   -7.2042 H   0  0  0  0  0  0  0  0  0  0  0  0
   16.5706    3.3949  -11.7063 H   0  0  0  0  0  0  0  0  0  0  0  0
   14.8392    2.2731  -12.9364 H   0  0  0  0  0  0  0  0  0  0  0  0
   16.5657    1.0445   -9.6329 H   0  0  0  0  0  0  0  0  0  0  0  0
   14.7314    0.0000  -10.7851 H   0  0  0  0  0  0  0  0  0  0  0  0
   14.4891    5.6978  -12.7762 H   0  0  0  0  0  0  0  0  0  0  0  0
   12.9731   22.1692    8.2508 H   0  0  0  0  0  0  0  0  0  0  0  0
   14.8199   23.6405    8.0708 H   0  0  0  0  0  0  0  0  0  0  0  0
   15.0298   19.5671    8.3788 H   0  0  0  0  0  0  0  0  0  0  0  0
   15.6096   21.1515   10.0333 H   0  0  0  0  0  0  0  0  0  0  0  0
   18.2951   20.0028    8.4150 H   0  0  0  0  0  0  0  0  0  0  0  0
   18.0302   22.3458    8.1497 H   0  0  0  0  0  0  0  0  0  0  0  0
   16.9814   19.4542    5.4454 H   0  0  0  0  0  0  0  0  0  0  0  0
   18.7825   20.9712    5.2563 H   0  0  0  0  0  0  0  0  0  0  0  0
   16.7545   23.5278    5.1518 H   0  0  0  0  0  0  0  0  0  0  0  0
   16.1491   21.9819    3.4634 H   0  0  0  0  0  0  0  0  0  0  0  0
  1  2  1  0  0  0  0
  1  6  1  0  0  0  0
  1  8  1  1  0  0  0
  1 41  1  6  0  0  0
  2  3  1  0  0  0  0
  2  8  1  1  0  0  0
  2 42  1  6  0  0  0
  3  4  1  1  0  0  0
  3  9  1  1  0  0  0
  3 20  1  6  0  0  0
  4  5  2  0  0  0  0
  4 43  1  1  0  0  0
  5  6  1  6  0  0  0
  5 10  1  1  0  0  0
  6  7  2  0  0  0  0
  9 44  1  0  0  0  0
 10 11  1  1  0  0  0
 10 45  1  0  0  0  0
 11 12  1  0  0  0  0
 11 13  2  0  0  0  0
 12 14  2  0  0  0  0
 12 46  1  0  0  0  0
 14 15  1  0  0  0  0
 14 47  1  0  0  0  0
 15 16  2  0  0  0  0
 15 48  1  0  0  0  0
 16 17  1  0  0  0  0
 16 49  1  0  0  0  0
 17 18  2  0  0  0  0
 17 50  1  0  0  0  0
 18 19  1  0  0  0  0
 18 51  1  0  0  0  0
 19 36  1  1  0  0  0
 19 40  1  0  0  0  0
 19 52  1  0  0  0  0
 20 21  2  0  0  0  0
 20 53  1  6  0  0  0
 21 22  1  6  0  0  0
 21 54  1  1  0  0  0
 22 23  2  0  0  0  0
 22 55  1  6  0  0  0
 23 24  1  6  0  0  0
 23 56  1  1  0  0  0
 24 25  2  0  0  0  0
 24 57  1  6  0  0  0
 25 26  1  6  0  0  0
 25 58  1  1  0  0  0
 26 27  1  0  0  0  0
 26 28  2  0  0  0  0
 27 29  1  6  0  0  0
 27 59  1  1  0  0  0
 29 30  2  0  0  0  0
 29 33  1  0  0  0  0
 30 31  1  0  0  0  0
 30 34  1  6  0  0  0
 31 32  1  1  0  0  0
 31 60  1  0  0  0  0
 31 61  1  6  0  0  0
 32 33  1  1  0  0  0
 32 62  1  0  0  0  0
 32 63  1  0  0  0  0
 33 35  2  0  0  0  0
 34 64  1  6  0  0  0
 36 37  1  0  0  0  0
 36 65  1  0  0  0  0
 36 66  1  0  0  0  0
 37 38  1  0  0  0  0
 37 67  1  0  0  0  0
 37 68  1  1  0  0  0
 38 39  1  6  0  0  0
 38 69  1  0  0  0  0
 38 70  1  0  0  0  0
 39 40  1  0  0  0  0
 39 71  1  0  0  0  0
 39 72  1  0  0  0  0
 40 73  1  0  0  0  0
 40 74  1  6  0  0  0
M  END
>  <Formula> (282)
C31H34N2O7

>  <Name> (282)
7-CYCLOHEXYL-N-(5-HYDROXY-5-(7-((2-HYDROXY-5-OXO-1-CYCLOPENTEN-1-YL)AMINO)-7-OXO-1,3,5-HEPTATRIENYL)-2-OXO-7-OXABICYCLO(4.1.0)HEPT-3-EN-3-YL)-2,4,6-HEPTATRIENAMIDE

>  <CAS-Nr> (282)
61116-33-4

>  <Compound classification> (282)
AB-0000

>  <Microorganism> (282)
Bacillus cereus

>  <Microorganism type> (282)
T

>  <Microorganism classification> (282)
Bac+

>  <MIC> (282)
3.1

>  <Method abbreviation> (282)
ADlT

>  <Ref-Nr> (282)
7407

>  <Marker> (282)
0

>  <Method> (282)
Agar dilution test; Inoculum size: ---; Medium: peptone, meat extract agar (bacteria), Potato dextrose agar(fungi); pH: 6.8-7.0; Incubation-temperature: 27,37 degrees Centigrade; Incubation-time: 18,72h; Solubility enhancer: ---

>  <Reference> (282)
Omura, S., Kitao, C., Nakagawa, A., Tanaka, H., Awaya, J., Oiwa, R.: Antibiotic Composition; US 4,226,879 (1980)

>  <mol_id> (282)
4811

>  <LD50-mouse-oral> (282)
LD >450

>  <LD50-mou-ip> (282)
459

>  <MolWeight> (282)
546.61

>  <Nickname> (282)
Asukamycin

>  <other Names> (282)
AM 1042, Asukamycin, BRN 3639742

$$$$

csChmFindW11180110282D

 74 77  0  0  0  0  0  0  0  0999 V2000
    0.9667   14.1445   -3.0546 C   0  0  0  0  0  0  0  0  0  0  0  0
    1.1281   12.1985   -2.9796 C   0  0  0  0  0  0  0  0  0  0  0  0
    2.8723   11.4142   -2.3407 C   0  0  0  0  0  0  0  0  0  0  0  0
    4.0201   12.6607   -1.2823 C   0  0  0  0  0  0  0  0  0  0  0  0
    3.9022   14.4325   -1.3706 C   0  0  0  0  0  0  0  0  0  0  0  0
    2.4849   15.2096   -2.4998 C   0  0  0  0  0  0  0  0  0  0  0  0
    2.5749   16.7854   -2.8664 O   0  0  0  0  0  0  0  0  0  0  0  0
    0.1163   13.1403   -1.6764 O   0  0  0  0  0  0  0  0  0  0  0  0
    2.4884    9.8975   -1.2816 O   0  0  0  0  0  0  0  0  0  0  0  0
    4.9523   15.6079   -0.5419 N   0  0  0  0  0  0  0  0  0  0  0  0
    6.3664   15.4073    0.5543 C   0  0  0  0  0  0  0  0  0  0  0  0
    7.1425   17.1185    1.0862 C   0  0  0  0  0  0  0  0  0  0  0  0
    6.9347   13.9691    1.0248 O   0  0  0  0  0  0  0  0  0  0  0  0
    8.6246   17.1639    2.0933 C   0  0  0  0  0  0  0  0  0  0  0  0
    9.4573   18.8262    2.6251 C   0  0  0  0  0  0  0  0  0  0  0  0
   10.9549   18.8467    3.6078 C   0  0  0  0  0  0  0  0  0  0  0  0
   11.8279   20.4927    4.1357 C   0  0  0  0  0  0  0  0  0  0  0  0
   13.3267   20.4844    5.1014 C   0  0  0  0  0  0  0  0  0  0  0  0
   14.2988   22.1331    5.6811 C   0  0  0  0  0  0  0  0  0  0  0  0
    4.0065   10.8670   -3.8968 C   0  0  0  0  0  0  0  0  0  0  0  0
    5.2440    9.5847   -3.8411 C   0  0  0  0  0  0  0  0  0  0  0  0
    6.3554    9.1844   -5.3756 C   0  0  0  0  0  0  0  0  0  0  0  0
    7.5883    7.8846   -5.3494 C   0  0  0  0  0  0  0  0  0  0  0  0
    8.7153    7.5262   -6.8794 C   0  0  0  0  0  0  0  0  0  0  0  0
    9.9225    6.2010   -6.8804 C   0  0  0  0  0  0  0  0  0  0  0  0
   11.0420    5.8859   -8.4495 C   0  0  0  0  0  0  0  0  0  0  0  0
   12.0222    4.3854   -8.2979 N   0  0  0  0  0  0  0  0  0  0  0  0
   11.0801    6.8546   -9.7424 O   0  0  0  0  0  0  0  0  0  0  0  0
   13.2171    3.6175   -9.3633 C   0  0  0  0  0  0  0  0  0  0  0  0
   13.9192    4.0830  -10.9270 C   0  0  0  0  0  0  0  0  0  0  0  0
   15.2466    2.7572  -11.6065 C   0  0  0  0  0  0  0  0  0  0  0  0
   15.2337    1.2645  -10.2207 C   0  0  0  0  0  0  0  0  0  0  0  0
   13.9645    1.8961   -8.8055 C   0  0  0  0  0  0  0  0  0  0  0  0
   13.6040    5.5836  -11.8540 O   0  0  0  0  0  0  0  0  0  0  0  0
   13.5716    1.1585   -7.4225 O   0  0  0  0  0  0  0  0  0  0  0  0
   14.3391   22.2927    7.7084 C   0  0  0  0  0  0  0  0  0  0  0  0
   15.5644   20.9259    8.5757 C   0  0  0  0  0  0  0  0  0  0  0  0
   17.4386   21.0388    7.8066 C   0  0  0  0  0  0  0  0  0  0  0  0
   17.4149   20.8196    5.7895 C   0  0  0  0  0  0  0  0  0  0  0  0
   16.1862   22.1844    4.9239 C   0  0  0  0  0  0  0  0  0  0  0  0
    0.0000   14.7491   -3.9453 H   0  0  0  0  0  0  0  0  0  0  0  0
    0.2731   11.3646   -3.7963 H   0  0  0  0  0  0  0  0  0  0  0  0
    5.0490   12.0224   -0.4765 H   0  0  0  0  0  0  0  0  0  0  0  0
    3.5870    9.4351   -0.9297 H   0  0  0  0  0  0  0  0  0  0  0  0
    4.5719   16.8465   -0.8719 H   0  0  0  0  0  0  0  0  0  0  0  0
    6.5259   18.3615    0.6415 H   0  0  0  0  0  0  0  0  0  0  0  0
    9.2393   15.9142    2.5218 H   0  0  0  0  0  0  0  0  0  0  0  0
    8.8589   20.0865    2.2046 H   0  0  0  0  0  0  0  0  0  0  0  0
   11.5478   17.5803    4.0195 H   0  0  0  0  0  0  0  0  0  0  0  0
   11.2487   21.7652    3.7281 H   0  0  0  0  0  0  0  0  0  0  0  0
   13.8942   19.2046    5.5006 H   0  0  0  0  0  0  0  0  0  0  0  0
   13.5672   23.3044    5.1503 H   0  0  0  0  0  0  0  0  0  0  0  0
    3.8388   11.6391   -5.1224 H   0  0  0  0  0  0  0  0  0  0  0  0
    5.4486    8.8267   -2.6156 H   0  0  0  0  0  0  0  0  0  0  0  0
    6.1883    9.9772   -6.5871 H   0  0  0  0  0  0  0  0  0  0  0  0
    7.7543    7.0809   -4.1452 H   0  0  0  0  0  0  0  0  0  0  0  0
    8.5708    8.3681   -8.0598 H   0  0  0  0  0  0  0  0  0  0  0  0
   10.0592    5.3397   -5.7132 H   0  0  0  0  0  0  0  0  0  0  0  0
   11.8768    3.6295   -7.2042 H   0  0  0  0  0  0  0  0  0  0  0  0
   16.5706    3.3949  -11.7063 H   0  0  0  0  0  0  0  0  0  0  0  0
   14.8392    2.2731  -12.9364 H   0  0  0  0  0  0  0  0  0  0  0  0
   16.5657    1.0445   -9.6329 H   0  0  0  0  0  0  0  0  0  0  0  0
   14.7314    0.0000  -10.7851 H   0  0  0  0  0  0  0  0  0  0  0  0
   14.4891    5.6978  -12.7762 H   0  0  0  0  0  0  0  0  0  0  0  0
   12.9731   22.1692    8.2508 H   0  0  0  0  0  0  0  0  0  0  0  0
   14.8199   23.6405    8.0708 H   0  0  0  0  0  0  0  0  0  0  0  0
   15.0298   19.5671    8.3788 H   0  0  0  0  0  0  0  0  0  0  0  0
   15.6096   21.1515   10.0333 H   0  0  0  0  0  0  0  0  0  0  0  0
   18.2951   20.0028    8.4150 H   0  0  0  0  0  0  0  0  0  0  0  0
   18.0302   22.3458    8.1497 H   0  0  0  0  0  0  0  0  0  0  0  0
   16.9814   19.4542    5.4454 H   0  0  0  0  0  0  0  0  0  0  0  0
   18.7825   20.9712    5.2563 H   0  0  0  0  0  0  0  0  0  0  0  0
   16.7545   23.5278    5.1518 H   0  0  0  0  0  0  0  0  0  0  0  0
   16.1491   21.9819    3.4634 H   0  0  0  0  0  0  0  0  0  0  0  0
  1  2  1  0  0  0  0
  1  6  1  0  0  0  0
  1  8  1  1  0  0  0
  1 41  1  6  0  0  0
  2  3  1  0  0  0  0
  2  8  1  1  0  0  0
  2 42  1  6  0  0  0
  3  4  1  1  0  0  0
  3  9  1  1  0  0  0
  3 20  1  6  0  0  0
  4  5  2  0  0  0  0
  4 43  1  1  0  0  0
  5  6  1  6  0  0  0
  5 10  1  1  0  0  0
  6  7  2  0  0  0  0
  9 44  1  0  0  0  0
 10 11  1  1  0  0  0
 10 45  1  0  0  0  0
 11 12  1  0  0  0  0
 11 13  2  0  0  0  0
 12 14  2  0  0  0  0
 12 46  1  0  0  0  0
 14 15  1  0  0  0  0
 14 47  1  0  0  0  0
 15 16  2  0  0  0  0
 15 48  1  0  0  0  0
 16 17  1  0  0  0  0
 16 49  1  0  0  0  0
 17 18  2  0  0  0  0
 17 50  1  0  0  0  0
 18 19  1  0  0  0  0
 18 51  1  0  0  0  0
 19 36  1  1  0  0  0
 19 40  1  0  0  0  0
 19 52  1  0  0  0  0
 20 21  2  0  0  0  0
 20 53  1  6  0  0  0
 21 22  1  6  0  0  0
 21 54  1  1  0  0  0
 22 23  2  0  0  0  0
 22 55  1  6  0  0  0
 23 24  1  6  0  0  0
 23 56  1  1  0  0  0
 24 25  2  0  0  0  0
 24 57  1  6  0  0  0
 25 26  1  6  0  0  0
 25 58  1  1  0  0  0
 26 27  1  0  0  0  0
 26 28  2  0  0  0  0
 27 29  1  6  0  0  0
 27 59  1  1  0  0  0
 29 30  2  0  0  0  0
 29 33  1  0  0  0  0
 30 31  1  0  0  0  0
 30 34  1  6  0  0  0
 31 32  1  1  0  0  0
 31 60  1  0  0  0  0
 31 61  1  6  0  0  0
 32 33  1  1  0  0  0
 32 62  1  0  0  0  0
 32 63  1  0  0  0  0
 33 35  2  0  0  0  0
 34 64  1  6  0  0  0
 36 37  1  0  0  0  0
 36 65  1  0  0  0  0
 36 66  1  0  0  0  0
 37 38  1  0  0  0  0
 37 67  1  0  0  0  0
 37 68  1  1  0  0  0
 38 39  1  6  0  0  0
 38 69  1  0  0  0  0
 38 70  1  0  0  0  0
 39 40  1  0  0  0  0
 39 71  1  0  0  0  0
 39 72  1  0  0  0  0
 40 73  1  0  0  0  0
 40 74  1  6  0  0  0
M  END
>  <Formula> (283)
C31H34N2O7

>  <Name> (283)
7-CYCLOHEXYL-N-(5-HYDROXY-5-(7-((2-HYDROXY-5-OXO-1-CYCLOPENTEN-1-YL)AMINO)-7-OXO-1,3,5-HEPTATRIENYL)-2-OXO-7-OXABICYCLO(4.1.0)HEPT-3-EN-3-YL)-2,4,6-HEPTATRIENAMIDE

>  <CAS-Nr> (283)
61116-33-4

>  <Compound classification> (283)
AB-0000

>  <Microorganism> (283)
Bacillus megaterium

>  <Microorganism type> (283)
APF

>  <Microorganism classification> (283)
Bac+

>  <MIC> (283)
6.2

>  <Method abbreviation> (283)
ADlT

>  <Ref-Nr> (283)
7407

>  <Marker> (283)
0

>  <Method> (283)
Agar dilution test; Inoculum size: ---; Medium: peptone, meat extract agar (bacteria), Potato dextrose agar(fungi); pH: 6.8-7.0; Incubation-temperature: 27,37 degrees Centigrade; Incubation-time: 18,72h; Solubility enhancer: ---

>  <Reference> (283)
Omura, S., Kitao, C., Nakagawa, A., Tanaka, H., Awaya, J., Oiwa, R.: Antibiotic Composition; US 4,226,879 (1980)

>  <mol_id> (283)
4811

>  <LD50-mouse-oral> (283)
LD >450

>  <LD50-mou-ip> (283)
459

>  <MolWeight> (283)
546.61

>  <Nickname> (283)
Asukamycin

>  <other Names> (283)
AM 1042, Asukamycin, BRN 3639742

$$$$
>  <Name> (284)
[2S-[2ALPHA,5ALPHA,6BETA(S*)]]-6-[(AMINOPHENYLACETYL)AMINO]-3,3-DIMETHYL-7-OXO-4-THIA-1-AZABICYCLO[3.2.0]HEPTANE-2-CARBOXYLIC ACID

>  <CAS-Nr> (284)
69-53-4

>  <EINECS> (284)
200-709-7

>  <21 CFR> (284)
556.40

>  <LD50-rat-oral> (284)
10000

>  <Compound classification> (284)
AB-bLac

>  <Microorganism> (284)
Staphylococcus aureus

>  <Microorganism type> (284)
A9748

>  <Microorganism classification> (284)
Bac+

>  <MIC> (284)
25

>  <Method abbreviation> (284)
ADlT

>  <Ref-Nr> (284)
7424

>  <Marker> (284)
0

>  <Method> (284)
Agar dilution test; Inoculum size: (10E4,10E6) 10E7-10E8 CFU/ml; Medium: Mueller-Hinton agar (aerobic organisms), GC medium (fastidious organisms), GAM agar (anaerobic bacteria); pH: ---; Incubation-temperature: -- degrees Centigrade; Incubation-time: ---; Solubility enhancer: ---

>  <Reference> (284)
Kawaguchi, H., Konoshi, M., Suguwara, K., Tomita, K.: Fermentation Process for Preparation of Antibiotic BU-2517; US 4,533,631 (1985)

>  <mol_id> (284)
2136

>  <LD50-mouse-oral> (284)
15200

>  <LD50-mou-ip> (284)
3250

>  <Nickname> (284)
Ampicillin

>  <other Names> (284)
AB-PC, Adobacillin, Amblosin, Amfipen, Aminobenzylpenicillin, D-(-)-alpha-Aminobenzylpenicillin, D-(-)-alpha-Aminopenicillin, 6-(D(-)-alpha-Aminophenylacetamido)penicillanic acid, Amipenix S, Ampi-bol, Ampicillin, D-Ampicillin, D-(-)-Ampicillin, Ampicillin A, Ampicillin acid, Ampicillin anhydrate, Ampicin, Ampimed, Ampipenin, Amplisom, Amplital, Ampy-Penyl, Austrapen, AY-6108, Binotal, Bonapicillin, Britacil, BRL 1341, Copharcilin, Doktacillin, Grampenil, Guicitrina, NSC-528986, Nuvapen, Olin Kid, Omnipen, P-50, Penbristol, Penbritin, Penbritin paediatric, Penbritin syrup, Penbrock, Penicillin, (aminophenylmethyl)-, Penicline, Pentrex, Pentrexl, Pfizerpen A, Ponecil, Principen, Qidamp, Roscillin, Semicillin, SK-Ampicillin, Synpenin, Tokiocillin, Tolomol, Totacillin, Totalciclina, Totapen, Ultrabron, Viccillin, Viccillin S, WY-5103

>  <LD50-mou-iv> (284)
4600

$$$$
>  <Name> (285)
[2S-[2ALPHA,5ALPHA,6BETA(S*)]]-6-[(AMINOPHENYLACETYL)AMINO]-3,3-DIMETHYL-7-OXO-4-THIA-1-AZABICYCLO[3.2.0]HEPTANE-2-CARBOXYLIC ACID

>  <CAS-Nr> (285)
69-53-4

>  <EINECS> (285)
200-709-7

>  <21 CFR> (285)
556.40

>  <LD50-rat-oral> (285)
10000

>  <Compound classification> (285)
AB-bLac

>  <Microorganism> (285)
Staphylococcus aureus

>  <Microorganism type> (285)
A20701

>  <Microorganism classification> (285)
Bac+

>  <MIC> (285)
25

>  <Method abbreviation> (285)
ADlT

>  <Ref-Nr> (285)
7424

>  <Marker> (285)
0

>  <Method> (285)
Agar dilution test; Inoculum size: (10E4,10E6) 10E7-10E8 CFU/ml; Medium: Mueller-Hinton agar (aerobic organisms), GC medium (fastidious organisms), GAM agar (anaerobic bacteria); pH: ---; Incubation-temperature: -- degrees Centigrade; Incubation-time: ---; Solubility enhancer: ---

>  <Reference> (285)
Kawaguchi, H., Konoshi, M., Suguwara, K., Tomita, K.: Fermentation Process for Preparation of Antibiotic BU-2517; US 4,533,631 (1985)

>  <mol_id> (285)
2136

>  <LD50-mouse-oral> (285)
15200

>  <LD50-mou-ip> (285)
3250

>  <Nickname> (285)
Ampicillin

>  <other Names> (285)
AB-PC, Adobacillin, Amblosin, Amfipen, Aminobenzylpenicillin, D-(-)-alpha-Aminobenzylpenicillin, D-(-)-alpha-Aminopenicillin, 6-(D(-)-alpha-Aminophenylacetamido)penicillanic acid, Amipenix S, Ampi-bol, Ampicillin, D-Ampicillin, D-(-)-Ampicillin, Ampicillin A, Ampicillin acid, Ampicillin anhydrate, Ampicin, Ampimed, Ampipenin, Amplisom, Amplital, Ampy-Penyl, Austrapen, AY-6108, Binotal, Bonapicillin, Britacil, BRL 1341, Copharcilin, Doktacillin, Grampenil, Guicitrina, NSC-528986, Nuvapen, Olin Kid, Omnipen, P-50, Penbristol, Penbritin, Penbritin paediatric, Penbritin syrup, Penbrock, Penicillin, (aminophenylmethyl)-, Penicline, Pentrex, Pentrexl, Pfizerpen A, Ponecil, Principen, Qidamp, Roscillin, Semicillin, SK-Ampicillin, Synpenin, Tokiocillin, Tolomol, Totacillin, Totalciclina, Totapen, Ultrabron, Viccillin, Viccillin S, WY-5103

>  <LD50-mou-iv> (285)
4600

$$$$
>  <Name> (286)
[2S-[2ALPHA,5ALPHA,6BETA(S*)]]-6-[(AMINOPHENYLACETYL)AMINO]-3,3-DIMETHYL-7-OXO-4-THIA-1-AZABICYCLO[3.2.0]HEPTANE-2-CARBOXYLIC ACID

>  <CAS-Nr> (286)
69-53-4

>  <EINECS> (286)
200-709-7

>  <21 CFR> (286)
556.40

>  <LD50-rat-oral> (286)
10000

>  <Compound classification> (286)
AB-bLac

>  <Microorganism> (286)
Staphylococcus aureus

>  <Microorganism type> (286)
209P

>  <Microorganism classification> (286)
Bac+

>  <MIC> (286)
0.013

>  <Method abbreviation> (286)
ADlT

>  <Ref-Nr> (286)
7424

>  <Marker> (286)
0

>  <Method> (286)
Agar dilution test; Inoculum size: (10E4,10E6) 10E7-10E8 CFU/ml; Medium: Mueller-Hinton agar (aerobic organisms), GC medium (fastidious organisms), GAM agar (anaerobic bacteria); pH: ---; Incubation-temperature: -- degrees Centigrade; Incubation-time: ---; Solubility enhancer: ---

>  <Reference> (286)
Kawaguchi, H., Konoshi, M., Suguwara, K., Tomita, K.: Fermentation Process for Preparation of Antibiotic BU-2517; US 4,533,631 (1985)

>  <mol_id> (286)
2136

>  <LD50-mouse-oral> (286)
15200

>  <LD50-mou-ip> (286)
3250

>  <Nickname> (286)
Ampicillin

>  <other Names> (286)
AB-PC, Adobacillin, Amblosin, Amfipen, Aminobenzylpenicillin, D-(-)-alpha-Aminobenzylpenicillin, D-(-)-alpha-Aminopenicillin, 6-(D(-)-alpha-Aminophenylacetamido)penicillanic acid, Amipenix S, Ampi-bol, Ampicillin, D-Ampicillin, D-(-)-Ampicillin, Ampicillin A, Ampicillin acid, Ampicillin anhydrate, Ampicin, Ampimed, Ampipenin, Amplisom, Amplital, Ampy-Penyl, Austrapen, AY-6108, Binotal, Bonapicillin, Britacil, BRL 1341, Copharcilin, Doktacillin, Grampenil, Guicitrina, NSC-528986, Nuvapen, Olin Kid, Omnipen, P-50, Penbristol, Penbritin, Penbritin paediatric, Penbritin syrup, Penbrock, Penicillin, (aminophenylmethyl)-, Penicline, Pentrex, Pentrexl, Pfizerpen A, Ponecil, Principen, Qidamp, Roscillin, Semicillin, SK-Ampicillin, Synpenin, Tokiocillin, Tolomol, Totacillin, Totalciclina, Totapen, Ultrabron, Viccillin, Viccillin S, WY-5103

>  <LD50-mou-iv> (286)
4600

$$$$
>  <Name> (287)
[2S-[2ALPHA,5ALPHA,6BETA(S*)]]-6-[(AMINOPHENYLACETYL)AMINO]-3,3-DIMETHYL-7-OXO-4-THIA-1-AZABICYCLO[3.2.0]HEPTANE-2-CARBOXYLIC ACID

>  <CAS-Nr> (287)
69-53-4

>  <EINECS> (287)
200-709-7

>  <21 CFR> (287)
556.40

>  <LD50-rat-oral> (287)
10000

>  <Compound classification> (287)
AB-bLac

>  <Microorganism> (287)
Staphylococcus aureus

>  <Microorganism type> (287)
Smith

>  <Microorganism classification> (287)
Bac+

>  <MIC> (287)
0.05

>  <Method abbreviation> (287)
ADlT

>  <Ref-Nr> (287)
7424

>  <Marker> (287)
0

>  <Method> (287)
Agar dilution test; Inoculum size: (10E4,10E6) 10E7-10E8 CFU/ml; Medium: Mueller-Hinton agar (aerobic organisms), GC medium (fastidious organisms), GAM agar (anaerobic bacteria); pH: ---; Incubation-temperature: -- degrees Centigrade; Incubation-time: ---; Solubility enhancer: ---

>  <Reference> (287)
Kawaguchi, H., Konoshi, M., Suguwara, K., Tomita, K.: Fermentation Process for Preparation of Antibiotic BU-2517; US 4,533,631 (1985)

>  <mol_id> (287)
2136

>  <LD50-mouse-oral> (287)
15200

>  <LD50-mou-ip> (287)
3250

>  <Nickname> (287)
Ampicillin

>  <other Names> (287)
AB-PC, Adobacillin, Amblosin, Amfipen, Aminobenzylpenicillin, D-(-)-alpha-Aminobenzylpenicillin, D-(-)-alpha-Aminopenicillin, 6-(D(-)-alpha-Aminophenylacetamido)penicillanic acid, Amipenix S, Ampi-bol, Ampicillin, D-Ampicillin, D-(-)-Ampicillin, Ampicillin A, Ampicillin acid, Ampicillin anhydrate, Ampicin, Ampimed, Ampipenin, Amplisom, Amplital, Ampy-Penyl, Austrapen, AY-6108, Binotal, Bonapicillin, Britacil, BRL 1341, Copharcilin, Doktacillin, Grampenil, Guicitrina, NSC-528986, Nuvapen, Olin Kid, Omnipen, P-50, Penbristol, Penbritin, Penbritin paediatric, Penbritin syrup, Penbrock, Penicillin, (aminophenylmethyl)-, Penicline, Pentrex, Pentrexl, Pfizerpen A, Ponecil, Principen, Qidamp, Roscillin, Semicillin, SK-Ampicillin, Synpenin, Tokiocillin, Tolomol, Totacillin, Totalciclina, Totapen, Ultrabron, Viccillin, Viccillin S, WY-5103

>  <LD50-mou-iv> (287)
4600

$$$$
>  <Name> (288)
[2S-[2ALPHA,5ALPHA,6BETA(S*)]]-6-[(AMINOPHENYLACETYL)AMINO]-3,3-DIMETHYL-7-OXO-4-THIA-1-AZABICYCLO[3.2.0]HEPTANE-2-CARBOXYLIC ACID

>  <CAS-Nr> (288)
69-53-4

>  <EINECS> (288)
200-709-7

>  <21 CFR> (288)
556.40

>  <LD50-rat-oral> (288)
10000

>  <Compound classification> (288)
AB-bLac

>  <Microorganism> (288)
Staphylococcus aureus

>  <Microorganism type> (288)
A9856

>  <Microorganism classification> (288)
Bac+

>  <MIC> (288)
0.05

>  <Method abbreviation> (288)
ADlT

>  <Ref-Nr> (288)
7424

>  <Marker> (288)
0

>  <Method> (288)
Agar dilution test; Inoculum size: (10E4,10E6) 10E7-10E8 CFU/ml; Medium: Mueller-Hinton agar (aerobic organisms), GC medium (fastidious organisms), GAM agar (anaerobic bacteria); pH: ---; Incubation-temperature: -- degrees Centigrade; Incubation-time: ---; Solubility enhancer: ---

>  <Reference> (288)
Kawaguchi, H., Konoshi, M., Suguwara, K., Tomita, K.: Fermentation Process for Preparation of Antibiotic BU-2517; US 4,533,631 (1985)

>  <mol_id> (288)
2136

>  <LD50-mouse-oral> (288)
15200

>  <LD50-mou-ip> (288)
3250

>  <Nickname> (288)
Ampicillin

>  <other Names> (288)
AB-PC, Adobacillin, Amblosin, Amfipen, Aminobenzylpenicillin, D-(-)-alpha-Aminobenzylpenicillin, D-(-)-alpha-Aminopenicillin, 6-(D(-)-alpha-Aminophenylacetamido)penicillanic acid, Amipenix S, Ampi-bol, Ampicillin, D-Ampicillin, D-(-)-Ampicillin, Ampicillin A, Ampicillin acid, Ampicillin anhydrate, Ampicin, Ampimed, Ampipenin, Amplisom, Amplital, Ampy-Penyl, Austrapen, AY-6108, Binotal, Bonapicillin, Britacil, BRL 1341, Copharcilin, Doktacillin, Grampenil, Guicitrina, NSC-528986, Nuvapen, Olin Kid, Omnipen, P-50, Penbristol, Penbritin, Penbritin paediatric, Penbritin syrup, Penbrock, Penicillin, (aminophenylmethyl)-, Penicline, Pentrex, Pentrexl, Pfizerpen A, Ponecil, Principen, Qidamp, Roscillin, Semicillin, SK-Ampicillin, Synpenin, Tokiocillin, Tolomol, Totacillin, Totalciclina, Totapen, Ultrabron, Viccillin, Viccillin S, WY-5103

>  <LD50-mou-iv> (288)
4600

$$$$
>  <Name> (289)
[2S-[2ALPHA,5ALPHA,6BETA(S*)]]-6-[(AMINOPHENYLACETYL)AMINO]-3,3-DIMETHYL-7-OXO-4-THIA-1-AZABICYCLO[3.2.0]HEPTANE-2-CARBOXYLIC ACID

>  <CAS-Nr> (289)
69-53-4

>  <EINECS> (289)
200-709-7

>  <21 CFR> (289)
556.40

>  <LD50-rat-oral> (289)
10000

>  <Compound classification> (289)
AB-bLac

>  <Microorganism> (289)
Staphylococcus aureus

>  <Microorganism type> (289)
A9601

>  <Microorganism classification> (289)
Bac+

>  <MIC> (289)
0.4

>  <Method abbreviation> (289)
ADlT

>  <Ref-Nr> (289)
7424

>  <Marker> (289)
0

>  <Method> (289)
Agar dilution test; Inoculum size: (10E4,10E6) 10E7-10E8 CFU/ml; Medium: Mueller-Hinton agar (aerobic organisms), GC medium (fastidious organisms), GAM agar (anaerobic bacteria); pH: ---; Incubation-temperature: -- degrees Centigrade; Incubation-time: ---; Solubility enhancer: ---

>  <Reference> (289)
Kawaguchi, H., Konoshi, M., Suguwara, K., Tomita, K.: Fermentation Process for Preparation of Antibiotic BU-2517; US 4,533,631 (1985)

>  <mol_id> (289)
2136

>  <LD50-mouse-oral> (289)
15200

>  <LD50-mou-ip> (289)
3250

>  <Nickname> (289)
Ampicillin

>  <other Names> (289)
AB-PC, Adobacillin, Amblosin, Amfipen, Aminobenzylpenicillin, D-(-)-alpha-Aminobenzylpenicillin, D-(-)-alpha-Aminopenicillin, 6-(D(-)-alpha-Aminophenylacetamido)penicillanic acid, Amipenix S, Ampi-bol, Ampicillin, D-Ampicillin, D-(-)-Ampicillin, Ampicillin A, Ampicillin acid, Ampicillin anhydrate, Ampicin, Ampimed, Ampipenin, Amplisom, Amplital, Ampy-Penyl, Austrapen, AY-6108, Binotal, Bonapicillin, Britacil, BRL 1341, Copharcilin, Doktacillin, Grampenil, Guicitrina, NSC-528986, Nuvapen, Olin Kid, Omnipen, P-50, Penbristol, Penbritin, Penbritin paediatric, Penbritin syrup, Penbrock, Penicillin, (aminophenylmethyl)-, Penicline, Pentrex, Pentrexl, Pfizerpen A, Ponecil, Principen, Qidamp, Roscillin, Semicillin, SK-Ampicillin, Synpenin, Tokiocillin, Tolomol, Totacillin, Totalciclina, Totapen, Ultrabron, Viccillin, Viccillin S, WY-5103

>  <LD50-mou-iv> (289)
4600

$$$$
>  <Name> (290)
[2S-[2ALPHA,5ALPHA,6BETA(S*)]]-6-[(AMINOPHENYLACETYL)AMINO]-3,3-DIMETHYL-7-OXO-4-THIA-1-AZABICYCLO[3.2.0]HEPTANE-2-CARBOXYLIC ACID

>  <CAS-Nr> (290)
69-53-4

>  <EINECS> (290)
200-709-7

>  <21 CFR> (290)
556.40

>  <LD50-rat-oral> (290)
10000

>  <Compound classification> (290)
AB-bLac

>  <Microorganism> (290)
Staphylococcus aureus

>  <Microorganism type> (290)
193

>  <Microorganism classification> (290)
Bac+

>  <MIC> (290)
1.6

>  <Method abbreviation> (290)
ADlT

>  <Ref-Nr> (290)
7424

>  <Marker> (290)
0

>  <Method> (290)
Agar dilution test; Inoculum size: (10E4,10E6) 10E7-10E8 CFU/ml; Medium: Mueller-Hinton agar (aerobic organisms), GC medium (fastidious organisms), GAM agar (anaerobic bacteria); pH: ---; Incubation-temperature: -- degrees Centigrade; Incubation-time: ---; Solubility enhancer: ---

>  <Reference> (290)
Kawaguchi, H., Konoshi, M., Suguwara, K., Tomita, K.: Fermentation Process for Preparation of Antibiotic BU-2517; US 4,533,631 (1985)

>  <mol_id> (290)
2136

>  <LD50-mouse-oral> (290)
15200

>  <LD50-mou-ip> (290)
3250

>  <Nickname> (290)
Ampicillin

>  <other Names> (290)
AB-PC, Adobacillin, Amblosin, Amfipen, Aminobenzylpenicillin, D-(-)-alpha-Aminobenzylpenicillin, D-(-)-alpha-Aminopenicillin, 6-(D(-)-alpha-Aminophenylacetamido)penicillanic acid, Amipenix S, Ampi-bol, Ampicillin, D-Ampicillin, D-(-)-Ampicillin, Ampicillin A, Ampicillin acid, Ampicillin anhydrate, Ampicin, Ampimed, Ampipenin, Amplisom, Amplital, Ampy-Penyl, Austrapen, AY-6108, Binotal, Bonapicillin, Britacil, BRL 1341, Copharcilin, Doktacillin, Grampenil, Guicitrina, NSC-528986, Nuvapen, Olin Kid, Omnipen, P-50, Penbristol, Penbritin, Penbritin paediatric, Penbritin syrup, Penbrock, Penicillin, (aminophenylmethyl)-, Penicline, Pentrex, Pentrexl, Pfizerpen A, Ponecil, Principen, Qidamp, Roscillin, Semicillin, SK-Ampicillin, Synpenin, Tokiocillin, Tolomol, Totacillin, Totalciclina, Totapen, Ultrabron, Viccillin, Viccillin S, WY-5103

>  <LD50-mou-iv> (290)
4600

$$$$
>  <Name> (291)
[2S-[2ALPHA,5ALPHA,6BETA(S*)]]-6-[(AMINOPHENYLACETYL)AMINO]-3,3-DIMETHYL-7-OXO-4-THIA-1-AZABICYCLO[3.2.0]HEPTANE-2-CARBOXYLIC ACID

>  <CAS-Nr> (291)
69-53-4

>  <EINECS> (291)
200-709-7

>  <21 CFR> (291)
556.40

>  <LD50-rat-oral> (291)
10000

>  <Compound classification> (291)
AB-bLac

>  <Microorganism> (291)
Staphylococcus aureus

>  <Microorganism type> (291)
A20239

>  <Microorganism classification> (291)
Bac+

>  <MIC> (291)
1.6

>  <Method abbreviation> (291)
ADlT

>  <Ref-Nr> (291)
7424

>  <Marker> (291)
0

>  <Method> (291)
Agar dilution test; Inoculum size: (10E4,10E6) 10E7-10E8 CFU/ml; Medium: Mueller-Hinton agar (aerobic organisms), GC medium (fastidious organisms), GAM agar (anaerobic bacteria); pH: ---; Incubation-temperature: -- degrees Centigrade; Incubation-time: ---; Solubility enhancer: ---

>  <Reference> (291)
Kawaguchi, H., Konoshi, M., Suguwara, K., Tomita, K.: Fermentation Process for Preparation of Antibiotic BU-2517; US 4,533,631 (1985)

>  <mol_id> (291)
2136

>  <LD50-mouse-oral> (291)
15200

>  <LD50-mou-ip> (291)
3250

>  <Nickname> (291)
Ampicillin

>  <other Names> (291)
AB-PC, Adobacillin, Amblosin, Amfipen, Aminobenzylpenicillin, D-(-)-alpha-Aminobenzylpenicillin, D-(-)-alpha-Aminopenicillin, 6-(D(-)-alpha-Aminophenylacetamido)penicillanic acid, Amipenix S, Ampi-bol, Ampicillin, D-Ampicillin, D-(-)-Ampicillin, Ampicillin A, Ampicillin acid, Ampicillin anhydrate, Ampicin, Ampimed, Ampipenin, Amplisom, Amplital, Ampy-Penyl, Austrapen, AY-6108, Binotal, Bonapicillin, Britacil, BRL 1341, Copharcilin, Doktacillin, Grampenil, Guicitrina, NSC-528986, Nuvapen, Olin Kid, Omnipen, P-50, Penbristol, Penbritin, Penbritin paediatric, Penbritin syrup, Penbrock, Penicillin, (aminophenylmethyl)-, Penicline, Pentrex, Pentrexl, Pfizerpen A, Ponecil, Principen, Qidamp, Roscillin, Semicillin, SK-Ampicillin, Synpenin, Tokiocillin, Tolomol, Totacillin, Totalciclina, Totapen, Ultrabron, Viccillin, Viccillin S, WY-5103

>  <LD50-mou-iv> (291)
4600

$$$$
>  <Name> (292)
[2S-[2ALPHA,5ALPHA,6BETA(S*)]]-6-[(AMINOPHENYLACETYL)AMINO]-3,3-DIMETHYL-7-OXO-4-THIA-1-AZABICYCLO[3.2.0]HEPTANE-2-CARBOXYLIC ACID

>  <CAS-Nr> (292)
69-53-4

>  <EINECS> (292)
200-709-7

>  <21 CFR> (292)
556.40

>  <LD50-rat-oral> (292)
10000

>  <Compound classification> (292)
AB-bLac

>  <Microorganism> (292)
Staphylococcus aureus

>  <Microorganism type> (292)
A20394

>  <Microorganism classification> (292)
Bac+

>  <MIC> (292)
3.1

>  <Method abbreviation> (292)
ADlT

>  <Ref-Nr> (292)
7424

>  <Marker> (292)
0

>  <Method> (292)
Agar dilution test; Inoculum size: (10E4,10E6) 10E7-10E8 CFU/ml; Medium: Mueller-Hinton agar (aerobic organisms), GC medium (fastidious organisms), GAM agar (anaerobic bacteria); pH: ---; Incubation-temperature: -- degrees Centigrade; Incubation-time: ---; Solubility enhancer: ---

>  <Reference> (292)
Kawaguchi, H., Konoshi, M., Suguwara, K., Tomita, K.: Fermentation Process for Preparation of Antibiotic BU-2517; US 4,533,631 (1985)

>  <mol_id> (292)
2136

>  <LD50-mouse-oral> (292)
15200

>  <LD50-mou-ip> (292)
3250

>  <Nickname> (292)
Ampicillin

>  <other Names> (292)
AB-PC, Adobacillin, Amblosin, Amfipen, Aminobenzylpenicillin, D-(-)-alpha-Aminobenzylpenicillin, D-(-)-alpha-Aminopenicillin, 6-(D(-)-alpha-Aminophenylacetamido)penicillanic acid, Amipenix S, Ampi-bol, Ampicillin, D-Ampicillin, D-(-)-Ampicillin, Ampicillin A, Ampicillin acid, Ampicillin anhydrate, Ampicin, Ampimed, Ampipenin, Amplisom, Amplital, Ampy-Penyl, Austrapen, AY-6108, Binotal, Bonapicillin, Britacil, BRL 1341, Copharcilin, Doktacillin, Grampenil, Guicitrina, NSC-528986, Nuvapen, Olin Kid, Omnipen, P-50, Penbristol, Penbritin, Penbritin paediatric, Penbritin syrup, Penbrock, Penicillin, (aminophenylmethyl)-, Penicline, Pentrex, Pentrexl, Pfizerpen A, Ponecil, Principen, Qidamp, Roscillin, Semicillin, SK-Ampicillin, Synpenin, Tokiocillin, Tolomol, Totacillin, Totalciclina, Totapen, Ultrabron, Viccillin, Viccillin S, WY-5103

>  <LD50-mou-iv> (292)
4600

$$$$
>  <Name> (293)
[2S-[2ALPHA,5ALPHA,6BETA(S*)]]-6-[(AMINOPHENYLACETYL)AMINO]-3,3-DIMETHYL-7-OXO-4-THIA-1-AZABICYCLO[3.2.0]HEPTANE-2-CARBOXYLIC ACID

>  <CAS-Nr> (293)
69-53-4

>  <EINECS> (293)
200-709-7

>  <21 CFR> (293)
556.40

>  <LD50-rat-oral> (293)
10000

>  <Compound classification> (293)
AB-bLac

>  <Microorganism> (293)
Staphylococcus aureus

>  <Microorganism type> (293)
BX-1633

>  <Microorganism classification> (293)
Bac+

>  <MIC> (293)
3.1

>  <Method abbreviation> (293)
ADlT

>  <Ref-Nr> (293)
7424

>  <Marker> (293)
0

>  <Method> (293)
Agar dilution test; Inoculum size: (10E4,10E6) 10E7-10E8 CFU/ml; Medium: Mueller-Hinton agar (aerobic organisms), GC medium (fastidious organisms), GAM agar (anaerobic bacteria); pH: ---; Incubation-temperature: -- degrees Centigrade; Incubation-time: ---; Solubility enhancer: ---

>  <Reference> (293)
Kawaguchi, H., Konoshi, M., Suguwara, K., Tomita, K.: Fermentation Process for Preparation of Antibiotic BU-2517; US 4,533,631 (1985)

>  <mol_id> (293)
2136

>  <LD50-mouse-oral> (293)
15200

>  <LD50-mou-ip> (293)
3250

>  <Nickname> (293)
Ampicillin

>  <other Names> (293)
AB-PC, Adobacillin, Amblosin, Amfipen, Aminobenzylpenicillin, D-(-)-alpha-Aminobenzylpenicillin, D-(-)-alpha-Aminopenicillin, 6-(D(-)-alpha-Aminophenylacetamido)penicillanic acid, Amipenix S, Ampi-bol, Ampicillin, D-Ampicillin, D-(-)-Ampicillin, Ampicillin A, Ampicillin acid, Ampicillin anhydrate, Ampicin, Ampimed, Ampipenin, Amplisom, Amplital, Ampy-Penyl, Austrapen, AY-6108, Binotal, Bonapicillin, Britacil, BRL 1341, Copharcilin, Doktacillin, Grampenil, Guicitrina, NSC-528986, Nuvapen, Olin Kid, Omnipen, P-50, Penbristol, Penbritin, Penbritin paediatric, Penbritin syrup, Penbrock, Penicillin, (aminophenylmethyl)-, Penicline, Pentrex, Pentrexl, Pfizerpen A, Ponecil, Principen, Qidamp, Roscillin, Semicillin, SK-Ampicillin, Synpenin, Tokiocillin, Tolomol, Totacillin, Totalciclina, Totapen, Ultrabron, Viccillin, Viccillin S, WY-5103

>  <LD50-mou-iv> (293)
4600

$$$$
>  <Name> (294)
[2S-[2ALPHA,5ALPHA,6BETA(S*)]]-6-[(AMINOPHENYLACETYL)AMINO]-3,3-DIMETHYL-7-OXO-4-THIA-1-AZABICYCLO[3.2.0]HEPTANE-2-CARBOXYLIC ACID

>  <CAS-Nr> (294)
69-53-4

>  <EINECS> (294)
200-709-7

>  <21 CFR> (294)
556.40

>  <LD50-rat-oral> (294)
10000

>  <Compound classification> (294)
AB-bLac

>  <Microorganism> (294)
Staphylococcus aureus

>  <Microorganism type> (294)
A22421

>  <Microorganism classification> (294)
Bac+

>  <MIC> (294)
12.5

>  <Method abbreviation> (294)
ADlT

>  <Ref-Nr> (294)
7424

>  <Marker> (294)
0

>  <Method> (294)
Agar dilution test; Inoculum size: (10E4,10E6) 10E7-10E8 CFU/ml; Medium: Mueller-Hinton agar (aerobic organisms), GC medium (fastidious organisms), GAM agar (anaerobic bacteria); pH: ---; Incubation-temperature: -- degrees Centigrade; Incubation-time: ---; Solubility enhancer: ---

>  <Reference> (294)
Kawaguchi, H., Konoshi, M., Suguwara, K., Tomita, K.: Fermentation Process for Preparation of Antibiotic BU-2517; US 4,533,631 (1985)

>  <mol_id> (294)
2136

>  <LD50-mouse-oral> (294)
15200

>  <LD50-mou-ip> (294)
3250

>  <Nickname> (294)
Ampicillin

>  <other Names> (294)
AB-PC, Adobacillin, Amblosin, Amfipen, Aminobenzylpenicillin, D-(-)-alpha-Aminobenzylpenicillin, D-(-)-alpha-Aminopenicillin, 6-(D(-)-alpha-Aminophenylacetamido)penicillanic acid, Amipenix S, Ampi-bol, Ampicillin, D-Ampicillin, D-(-)-Ampicillin, Ampicillin A, Ampicillin acid, Ampicillin anhydrate, Ampicin, Ampimed, Ampipenin, Amplisom, Amplital, Ampy-Penyl, Austrapen, AY-6108, Binotal, Bonapicillin, Britacil, BRL 1341, Copharcilin, Doktacillin, Grampenil, Guicitrina, NSC-528986, Nuvapen, Olin Kid, Omnipen, P-50, Penbristol, Penbritin, Penbritin paediatric, Penbritin syrup, Penbrock, Penicillin, (aminophenylmethyl)-, Penicline, Pentrex, Pentrexl, Pfizerpen A, Ponecil, Principen, Qidamp, Roscillin, Semicillin, SK-Ampicillin, Synpenin, Tokiocillin, Tolomol, Totacillin, Totalciclina, Totapen, Ultrabron, Viccillin, Viccillin S, WY-5103

>  <LD50-mou-iv> (294)
4600

$$$$
>  <Name> (295)
[2S-[2ALPHA,5ALPHA,6BETA(S*)]]-6-[(AMINOPHENYLACETYL)AMINO]-3,3-DIMETHYL-7-OXO-4-THIA-1-AZABICYCLO[3.2.0]HEPTANE-2-CARBOXYLIC ACID

>  <CAS-Nr> (295)
69-53-4

>  <EINECS> (295)
200-709-7

>  <21 CFR> (295)
556.40

>  <LD50-rat-oral> (295)
10000

>  <Compound classification> (295)
AB-bLac

>  <Microorganism> (295)
Staphylococcus aureus

>  <Microorganism type> (295)
A20610

>  <Microorganism classification> (295)
Bac+

>  <MIC> (295)
12.5

>  <Method abbreviation> (295)
ADlT

>  <Ref-Nr> (295)
7424

>  <Marker> (295)
0

>  <Method> (295)
Agar dilution test; Inoculum size: (10E4,10E6) 10E7-10E8 CFU/ml; Medium: Mueller-Hinton agar (aerobic organisms), GC medium (fastidious organisms), GAM agar (anaerobic bacteria); pH: ---; Incubation-temperature: -- degrees Centigrade; Incubation-time: ---; Solubility enhancer: ---

>  <Reference> (295)
Kawaguchi, H., Konoshi, M., Suguwara, K., Tomita, K.: Fermentation Process for Preparation of Antibiotic BU-2517; US 4,533,631 (1985)

>  <mol_id> (295)
2136

>  <LD50-mouse-oral> (295)
15200

>  <LD50-mou-ip> (295)
3250

>  <Nickname> (295)
Ampicillin

>  <other Names> (295)
AB-PC, Adobacillin, Amblosin, Amfipen, Aminobenzylpenicillin, D-(-)-alpha-Aminobenzylpenicillin, D-(-)-alpha-Aminopenicillin, 6-(D(-)-alpha-Aminophenylacetamido)penicillanic acid, Amipenix S, Ampi-bol, Ampicillin, D-Ampicillin, D-(-)-Ampicillin, Ampicillin A, Ampicillin acid, Ampicillin anhydrate, Ampicin, Ampimed, Ampipenin, Amplisom, Amplital, Ampy-Penyl, Austrapen, AY-6108, Binotal, Bonapicillin, Britacil, BRL 1341, Copharcilin, Doktacillin, Grampenil, Guicitrina, NSC-528986, Nuvapen, Olin Kid, Omnipen, P-50, Penbristol, Penbritin, Penbritin paediatric, Penbritin syrup, Penbrock, Penicillin, (aminophenylmethyl)-, Penicline, Pentrex, Pentrexl, Pfizerpen A, Ponecil, Principen, Qidamp, Roscillin, Semicillin, SK-Ampicillin, Synpenin, Tokiocillin, Tolomol, Totacillin, Totalciclina, Totapen, Ultrabron, Viccillin, Viccillin S, WY-5103

>  <LD50-mou-iv> (295)
4600

$$$$

csChmFindW11180110282D

166165  0  0  0  0  0  0  0  0999 V2000
   33.2372    4.3342    1.1119 C   0  0  0  0  0  0  0  0  0  0  0  0
   31.7316    4.4728   -0.2187 C   0  0  0  0  0  0  0  0  0  0  0  0
   30.2142    5.6054    0.4784 C   0  0  0  0  0  0  0  0  0  0  0  0
   28.6967    5.7302   -0.8457 C   0  0  0  0  0  0  0  0  0  0  0  0
   27.1488    6.8085   -0.1276 C   0  0  0  0  0  0  0  0  0  0  0  0
   25.6105    6.8642   -1.4307 C   0  0  0  0  0  0  0  0  0  0  0  0
   24.0299    7.7936   -0.6848 C   0  0  0  0  0  0  0  0  0  0  0  0
   22.9411    8.7983   -1.6372 C   0  0  0  0  0  0  0  0  0  0  0  0
   21.2754    9.6109   -0.9305 C   0  0  0  0  0  0  0  0  0  0  0  0
   19.7110    8.8685   -1.9356 C   0  0  0  0  0  0  0  0  0  0  0  0
   18.4205    7.9910   -1.0246 N   0  0  0  0  0  0  0  0  0  0  0  0
   19.6203    8.9484   -3.5170 O   0  0  0  0  0  0  0  0  0  0  0  0
   18.1885    7.9473    0.8877 C   0  0  0  0  0  0  0  0  0  0  0  0
   16.2262    8.1555    1.2745 C   0  0  0  0  0  0  0  0  0  0  0  0
   15.4384    7.2067    2.2620 O   0  0  0  0  0  0  0  0  0  0  0  0
   15.4541    9.5257    0.3851 N   0  0  0  0  0  0  0  0  0  0  0  0
   18.9330    6.2875    1.7464 C   0  0  0  0  0  0  0  0  0  0  0  0
   20.6830    5.9045    1.2528 O   0  0  0  0  0  0  0  0  0  0  0  0
   21.1102    4.4582    0.3041 C   0  0  0  0  0  0  0  0  0  0  0  0
   22.5394    3.7816    0.4673 O   0  0  0  0  0  0  0  0  0  0  0  0
   19.9017    3.9260   -1.1985 C   0  0  0  0  0  0  0  0  0  0  0  0
   18.3833    2.8923   -0.6232 N   0  0  0  0  0  0  0  0  0  0  0  0
   16.7014    3.5333   -0.7515 C   0  0  0  0  0  0  0  0  0  0  0  0
   16.3521    4.9576   -1.3593 O   0  0  0  0  0  0  0  0  0  0  0  0
   15.2848    2.3765    0.0610 C   0  0  0  0  0  0  0  0  0  0  0  0
   13.5634    3.1551   -0.3091 N   0  0  0  0  0  0  0  0  0  0  0  0
   12.9752    3.3825   -1.9945 C   0  0  0  0  0  0  0  0  0  0  0  0
   13.6909    2.7192   -3.2469 O   0  0  0  0  0  0  0  0  0  0  0  0
   11.4937    4.6959   -2.1607 C   0  0  0  0  0  0  0  0  0  0  0  0
   10.2039    4.6159   -0.7378 N   0  0  0  0  0  0  0  0  0  0  0  0
   10.3949    5.4185    0.8708 C   0  0  0  0  0  0  0  0  0  0  0  0
   11.7535    6.0010    1.4357 O   0  0  0  0  0  0  0  0  0  0  0  0
    8.6922    5.5130    1.9197 C   0  0  0  0  0  0  0  0  0  0  0  0
    7.1653    5.1966    0.7806 N   0  0  0  0  0  0  0  0  0  0  0  0
    8.4890    7.2749    2.8749 C   0  0  0  0  0  0  0  0  0  0  0  0
    6.7572    3.5304    0.2183 C   0  0  0  0  0  0  0  0  0  0  0  0
    7.5288    2.2572    0.7620 O   0  0  0  0  0  0  0  0  0  0  0  0
    5.4484    3.4681   -1.2869 C   0  0  0  0  0  0  0  0  0  0  0  0
    3.8302    2.5425   -0.8034 N   0  0  0  0  0  0  0  0  0  0  0  0
    6.3340    2.4752   -2.8201 C   0  0  0  0  0  0  0  0  0  0  0  0
   15.5325    2.3862    2.0659 C   0  0  0  0  0  0  0  0  0  0  0  0
    2.5107    3.1209    0.2873 C   0  0  0  0  0  0  0  0  0  0  0  0
    1.3977    2.0905    0.7516 O   0  0  0  0  0  0  0  0  0  0  0  0
    2.5064    5.0146    0.9729 C   0  0  0  0  0  0  0  0  0  0  0  0
    3.2768    5.0568    2.8271 C   0  0  0  0  0  0  0  0  0  0  0  0
    2.7958    6.6421    3.7060 O   0  0  0  0  0  0  0  0  0  0  0  0
    3.0318    6.3538   -0.3124 N   0  0  0  0  0  0  0  0  0  0  0  0
    4.1237    7.7504    0.0223 C   0  0  0  0  0  0  0  0  0  0  0  0
    4.8232    8.0401    1.4113 O   0  0  0  0  0  0  0  0  0  0  0  0
    4.4313    8.9736   -1.5250 C   0  0  0  0  0  0  0  0  0  0  0  0
    6.0831    9.9266   -1.2404 N   0  0  0  0  0  0  0  0  0  0  0  0
    2.9266   10.3025   -1.8046 C   0  0  0  0  0  0  0  0  0  0  0  0
    1.0985    9.4521   -1.9033 C   0  0  0  0  0  0  0  0  0  0  0  0
    3.2524   11.3924   -3.4756 C   0  0  0  0  0  0  0  0  0  0  0  0
    7.5921    9.3316   -2.0830 C   0  0  0  0  0  0  0  0  0  0  0  0
    8.1913   10.6483   -1.3705 O   0  0  0  0  0  0  0  0  0  0  0  0
    9.6105    9.5247   -2.4939 C   0  0  0  0  0  0  0  0  0  0  0  0
   10.8163    9.7048   -0.9793 N   0  0  0  0  0  0  0  0  0  0  0  0
   13.5888    9.9828    0.5624 C   0  0  0  0  0  0  0  0  0  0  0  0
   12.6102    9.5980   -1.1317 C   0  0  0  0  0  0  0  0  0  0  0  0
   13.3782    9.2124   -2.4652 O   0  0  0  0  0  0  0  0  0  0  0  0
   14.0868    1.4378    3.1054 C   0  0  0  0  0  0  0  0  0  0  0  0
   14.0049    2.1039    5.0102 C   0  0  0  0  0  0  0  0  0  0  0  0
   12.9663    3.7058    5.1570 N   0  0  0  0  0  0  0  0  0  0  0  0
   11.3548    3.8037    5.9949 C   0  0  0  0  0  0  0  0  0  0  0  0
   10.7808    5.2759    6.0712 O   0  0  0  0  0  0  0  0  0  0  0  0
   13.3936    5.3603    4.4865 O   0  5  0  0  0  0  0  0  0  0  0  0
   10.5011    2.1284    6.6270 C   0  0  0  0  0  0  0  0  0  0  0  0
    5.3839    2.5522   -4.6007 C   0  0  0  0  0  0  0  0  0  0  0  0
    5.4324    4.3736   -5.4750 C   0  0  0  0  0  0  0  0  0  0  0  0
    3.7559    5.2910   -5.2994 N   0  0  0  0  0  0  0  0  0  0  0  0
    3.2787    5.7643   -3.7068 O   0  5  0  0  0  0  0  0  0  0  0  0
    2.4827    5.0659   -6.5717 C   0  0  0  0  0  0  0  0  0  0  0  0
    2.6293    4.0407   -7.7759 O   0  0  0  0  0  0  0  0  0  0  0  0
    0.8755    6.2285   -6.3688 C   0  0  0  0  0  0  0  0  0  0  0  0
   13.3600   11.9060    1.1248 C   0  0  0  0  0  0  0  0  0  0  0  0
   14.1174   12.3526    2.9448 C   0  0  0  0  0  0  0  0  0  0  0  0
   13.1136   11.5578    4.5106 C   0  0  0  0  0  0  0  0  0  0  0  0
   13.6455    9.7672    4.9107 N   0  0  0  0  0  0  0  0  0  0  0  0
   12.7828    8.3284    4.3963 O   0  5  0  0  0  0  0  0  0  0  0  0
   15.1270    9.3299    5.8566 C   0  0  0  0  0  0  0  0  0  0  0  0
   16.1203   10.7925    6.7631 C   0  0  0  0  0  0  0  0  0  0  0  0
   15.4634    7.7853    5.9272 O   0  0  0  0  0  0  0  0  0  0  0  0
   34.3241    3.5061    0.5897 H   0  0  0  0  0  0  0  0  0  0  0  0
   32.7812    3.7307    2.3633 H   0  0  0  0  0  0  0  0  0  0  0  0
   33.7904    5.6518    1.4213 H   0  0  0  0  0  0  0  0  0  0  0  0
   31.2386    3.1274   -0.5261 H   0  0  0  0  0  0  0  0  0  0  0  0
   32.2401    5.0475   -1.4668 H   0  0  0  0  0  0  0  0  0  0  0  0
   30.7075    6.9508    0.7814 H   0  0  0  0  0  0  0  0  0  0  0  0
   29.7203    5.0272    1.7305 H   0  0  0  0  0  0  0  0  0  0  0  0
   28.2327    4.3789   -1.1697 H   0  0  0  0  0  0  0  0  0  0  0  0
   29.1796    6.3368   -2.0883 H   0  0  0  0  0  0  0  0  0  0  0  0
   27.5890    8.1741    0.1670 H   0  0  0  0  0  0  0  0  0  0  0  0
   26.7000    6.2079    1.1316 H   0  0  0  0  0  0  0  0  0  0  0  0
   25.1952    5.4928   -1.7363 H   0  0  0  0  0  0  0  0  0  0  0  0
   26.0340    7.4845   -2.6860 H   0  0  0  0  0  0  0  0  0  0  0  0
   23.7290    7.5491    0.7085 H   0  0  0  0  0  0  0  0  0  0  0  0
   23.2317    9.0084   -3.0399 H   0  0  0  0  0  0  0  0  0  0  0  0
   21.3201   11.0552   -1.1617 H   0  0  0  0  0  0  0  0  0  0  0  0
   21.2248    9.4186    0.5098 H   0  0  0  0  0  0  0  0  0  0  0  0
   17.5308    7.3551   -1.7777 H   0  0  0  0  0  0  0  0  0  0  0  0
   18.7623    9.1368    1.5174 H   0  0  0  0  0  0  0  0  0  0  0  0
   16.1816   10.1997   -0.4947 H   0  0  0  0  0  0  0  0  0  0  0  0
   18.9396    6.4947    3.1978 H   0  0  0  0  0  0  0  0  0  0  0  0
   18.0997    5.1215    1.5598 H   0  0  0  0  0  0  0  0  0  0  0  0
   20.6645    3.0764   -2.1145 H   0  0  0  0  0  0  0  0  0  0  0  0
   19.5280    5.0929   -1.9860 H   0  0  0  0  0  0  0  0  0  0  0  0
   18.5797    1.7025   -0.0731 H   0  0  0  0  0  0  0  0  0  0  0  0
   15.3614    1.0206   -0.4800 H   0  0  0  0  0  0  0  0  0  0  0  0
   12.9046    3.7524    0.6711 H   0  0  0  0  0  0  0  0  0  0  0  0
   10.7881    4.4690   -3.4214 H   0  0  0  0  0  0  0  0  0  0  0  0
   12.0819    6.0309   -2.2213 H   0  0  0  0  0  0  0  0  0  0  0  0
    9.0589    3.9916   -0.9801 H   0  0  0  0  0  0  0  0  0  0  0  0
    8.7722    4.4584    2.9360 H   0  0  0  0  0  0  0  0  0  0  0  0
    6.5196    6.2245    0.2452 H   0  0  0  0  0  0  0  0  0  0  0  0
    8.4078    8.3781    1.9193 H   0  0  0  0  0  0  0  0  0  0  0  0
    9.6091    7.5533    3.7659 H   0  0  0  0  0  0  0  0  0  0  0  0
    7.2829    7.2864    3.7006 H   0  0  0  0  0  0  0  0  0  0  0  0
    5.2189    4.8284   -1.7321 H   0  0  0  0  0  0  0  0  0  0  0  0
    3.7118    1.2741   -1.1737 H   0  0  0  0  0  0  0  0  0  0  0  0
    6.4772    1.0670   -2.4344 H   0  0  0  0  0  0  0  0  0  0  0  0
    7.6953    2.9796   -3.0195 H   0  0  0  0  0  0  0  0  0  0  0  0
   15.5495    3.7861    2.4886 H   0  0  0  0  0  0  0  0  0  0  0  0
   16.8366    1.8260    2.4277 H   0  0  0  0  0  0  0  0  0  0  0  0
    1.0717    5.2877    1.1607 H   0  0  0  0  0  0  0  0  0  0  0  0
    4.7273    4.9462    2.8316 H   0  0  0  0  0  0  0  0  0  0  0  0
    2.7587    3.9588    3.6430 H   0  0  0  0  0  0  0  0  0  0  0  0
    2.9542    7.5557    2.8873 H   0  0  0  0  0  0  0  0  0  0  0  0
    2.5247    6.2635   -1.5300 H   0  0  0  0  0  0  0  0  0  0  0  0
    4.5889    8.1777   -2.7357 H   0  0  0  0  0  0  0  0  0  0  0  0
    6.0042   10.8593   -0.2843 H   0  0  0  0  0  0  0  0  0  0  0  0
    2.9223   11.2199   -0.6558 H   0  0  0  0  0  0  0  0  0  0  0  0
    0.0669   10.4507   -2.1789 H   0  0  0  0  0  0  0  0  0  0  0  0
    0.7236    8.8123   -0.6446 H   0  0  0  0  0  0  0  0  0  0  0  0
    1.0364    8.4516   -2.9650 H   0  0  0  0  0  0  0  0  0  0  0  0
    2.2124   12.4029   -3.6616 H   0  0  0  0  0  0  0  0  0  0  0  0
    3.2625   10.5397   -4.6634 H   0  0  0  0  0  0  0  0  0  0  0  0
    4.5301   12.0997   -3.4208 H   0  0  0  0  0  0  0  0  0  0  0  0
    9.9010    8.2101   -3.0842 H   0  0  0  0  0  0  0  0  0  0  0  0
    9.9531   10.4483   -3.5904 H   0  0  0  0  0  0  0  0  0  0  0  0
   10.2925   10.0172    0.1987 H   0  0  0  0  0  0  0  0  0  0  0  0
   12.9409    9.1291    1.5464 H   0  0  0  0  0  0  0  0  0  0  0  0
   14.3666    0.0000    3.0741 H   0  0  0  0  0  0  0  0  0  0  0  0
   12.7683    1.6169    2.4980 H   0  0  0  0  0  0  0  0  0  0  0  0
   15.3542    2.3774    5.5055 H   0  0  0  0  0  0  0  0  0  0  0  0
   13.4977    1.0447    5.8757 H   0  0  0  0  0  0  0  0  0  0  0  0
    9.1487    2.4218    7.0978 H   0  0  0  0  0  0  0  0  0  0  0  0
   11.2330    1.5572    7.7551 H   0  0  0  0  0  0  0  0  0  0  0  0
   10.3798    1.1543    5.5445 H   0  0  0  0  0  0  0  0  0  0  0  0
    4.0095    2.0704   -4.4644 H   0  0  0  0  0  0  0  0  0  0  0  0
    6.0537    1.6030   -5.4979 H   0  0  0  0  0  0  0  0  0  0  0  0
    5.7991    4.2681   -6.8878 H   0  0  0  0  0  0  0  0  0  0  0  0
    6.4818    5.2011   -4.8790 H   0  0  0  0  0  0  0  0  0  0  0  0
    0.0000    6.1074   -7.5326 H   0  0  0  0  0  0  0  0  0  0  0  0
    1.2703    7.6315   -6.2538 H   0  0  0  0  0  0  0  0  0  0  0  0
    0.1055    5.8435   -5.1877 H   0  0  0  0  0  0  0  0  0  0  0  0
   11.9424   12.2742    1.1095 H   0  0  0  0  0  0  0  0  0  0  0  0
   14.0156   12.7442    0.1156 H   0  0  0  0  0  0  0  0  0  0  0  0
   14.0683   13.8134    3.0844 H   0  0  0  0  0  0  0  0  0  0  0  0
   15.5325   11.9890    2.9937 H   0  0  0  0  0  0  0  0  0  0  0  0
   11.6798   11.5684    4.2166 H   0  0  0  0  0  0  0  0  0  0  0  0
   13.2601   12.3963    5.6988 H   0  0  0  0  0  0  0  0  0  0  0  0
   15.2867   11.4363    7.7759 H   0  0  0  0  0  0  0  0  0  0  0  0
   16.6121   11.7879    5.8163 H   0  0  0  0  0  0  0  0  0  0  0  0
   17.2852   10.2412    7.4521 H   0  0  0  0  0  0  0  0  0  0  0  0
   13.2592    6.4126    4.3349 Fe  0  1  0  0  0  0  0  0  0  0  0  0
  1  2  1  6  0  0  0
  1 84  1  0  0  0  0
  1 85  1  1  0  0  0
  1 86  1  0  0  0  0
  2  3  1  0  0  0  0
  2 87  1  0  0  0  0
  2 88  1  6  0  0  0
  3  4  1  6  0  0  0
  3 89  1  0  0  0  0
  3 90  1  1  0  0  0
  4  5  1  0  0  0  0
  4 91  1  0  0  0  0
  4 92  1  6  0  0  0
  5  6  1  6  0  0  0
  5 93  1  0  0  0  0
  5 94  1  1  0  0  0
  6  7  1  0  0  0  0
  6 95  1  0  0  0  0
  6 96  1  6  0  0  0
  7  8  2  0  0  0  0
  7 97  1  1  0  0  0
  8  9  1  0  0  0  0
  8 98  1  6  0  0  0
  9 10  1  6  0  0  0
  9 99  1  0  0  0  0
  9100  1  1  0  0  0
 10 11  1  1  0  0  0
 10 12  2  0  0  0  0
 11 13  1  1  0  0  0
 11101  1  6  0  0  0
 13 14  1  0  0  0  0
 13 17  1  0  0  0  0
 13102  1  0  0  0  0
 14 15  2  0  0  0  0
 14 16  1  6  0  0  0
 16 59  1  0  0  0  0
 16103  1  6  0  0  0
 17 18  1  0  0  0  0
 17104  1  1  0  0  0
 17105  1  0  0  0  0
 18 19  1  6  0  0  0
 19 20  2  0  0  0  0
 19 21  1  6  0  0  0
 21 22  1  0  0  0  0
 21106  1  6  0  0  0
 21107  1  6  0  0  0
 22 23  1  0  0  0  0
 22108  1  0  0  0  0
 23 24  2  0  0  0  0
 23 25  1  0  0  0  0
 25 26  1  0  0  0  0
 25 41  1  1  0  0  0
 25109  1  0  0  0  0
 26 27  1  6  0  0  0
 26110  1  1  0  0  0
 27 28  2  0  0  0  0
 27 29  1  0  0  0  0
 29 30  1  1  0  0  0
 29111  1  6  0  0  0
 29112  1  0  0  0  0
 30 31  1  1  0  0  0
 30113  1  0  0  0  0
 31 32  2  0  0  0  0
 31 33  1  1  0  0  0
 33 34  1  6  0  0  0
 33 35  1  1  0  0  0
 33114  1  1  0  0  0
 34 36  1  0  0  0  0
 34115  1  0  0  0  0
 35116  1  6  0  0  0
 35117  1  1  0  0  0
 35118  1  1  0  0  0
 36 37  2  0  0  0  0
 36 38  1  6  0  0  0
 38 39  1  0  0  0  0
 38 40  1  6  0  0  0
 38119  1  0  0  0  0
 39 42  1  1  0  0  0
 39120  1  0  0  0  0
 40 69  1  6  0  0  0
 40121  1  0  0  0  0
 40122  1  0  0  0  0
 41 62  1  1  0  0  0
 41123  1  0  0  0  0
 41124  1  0  0  0  0
 42 43  2  0  0  0  0
 42 44  1  0  0  0  0
 44 45  1  1  0  0  0
 44 47  1  6  0  0  0
 44125  1  0  0  0  0
 45 46  1  1  0  0  0
 45126  1  0  0  0  0
 45127  1  1  0  0  0
 46128  1  6  0  0  0
 47 48  1  0  0  0  0
 47129  1  6  0  0  0
 48 49  2  0  0  0  0
 48 50  1  6  0  0  0
 50 51  1  0  0  0  0
 50 52  1  0  0  0  0
 50130  1  6  0  0  0
 51 55  1  6  0  0  0
 51131  1  1  0  0  0
 52 53  1  0  0  0  0
 52 54  1  6  0  0  0
 52132  1  1  0  0  0
 53133  1  0  0  0  0
 53134  1  1  0  0  0
 53135  1  6  0  0  0
 54136  1  0  0  0  0
 54137  1  6  0  0  0
 54138  1  0  0  0  0
 55 56  2  0  0  0  0
 55 57  1  0  0  0  0
 57 58  1  1  0  0  0
 57139  1  0  0  0  0
 57140  1  6  0  0  0
 58 60  1  0  0  0  0
 58141  1  1  0  0  0
 59 60  1  6  0  0  0
 59 76  1  0  0  0  0
 59142  1  1  0  0  0
 60 61  2  0  0  0  0
 62 63  1  1  0  0  0
 62143  1  0  0  0  0
 62144  1  0  0  0  0
 63 64  1  0  0  0  0
 63145  1  0  0  0  0
 63146  1  1  0  0  0
 64 65  1  1  0  0  0
 64 67  1  0  0  0  0
 65 66  2  0  0  0  0
 65 68  1  0  0  0  0
 68147  1  0  0  0  0
 68148  1  1  0  0  0
 68149  1  6  0  0  0
 69 70  1  0  0  0  0
 69150  1  0  0  0  0
 69151  1  6  0  0  0
 70 71  1  0  0  0  0
 70152  1  6  0  0  0
 70153  1  0  0  0  0
 71 72  1  1  0  0  0
 71 73  1  6  0  0  0
 73 74  2  0  0  0  0
 73 75  1  0  0  0  0
 75154  1  6  0  0  0
 75155  1  0  0  0  0
 75156  1  1  0  0  0
 76 77  1  1  0  0  0
 76157  1  0  0  0  0
 76158  1  6  0  0  0
 77 78  1  1  0  0  0
 77159  1  0  0  0  0
 77160  1  0  0  0  0
 78 79  1  0  0  0  0
 78161  1  0  0  0  0
 78162  1  1  0  0  0
 79 80  1  0  0  0  0
 79 81  1  1  0  0  0
 81 82  1  1  0  0  0
 81 83  2  0  0  0  0
 82163  1  1  0  0  0
 82164  1  6  0  0  0
 82165  1  1  0  0  0
M  END
>  <Formula> (296)
C51H82FeN13O19

>  <Name> (296)
IRON, (N-(N5-ACETYL-N2-(N-(N-(N5-ACETYL-N2-(N-(N-(N-(N5-ACETYL-N5-HYDROXY-N2-(N-(1-OXO-3-DECENYL)-L-SERYL)-L-ORNITHYL)GLYCYL)-L-VALYL)-L-SERYL)-N5-HYDROXY-L-ORNITHYL)-L-ALANYL)GLYCYL)-N5-HYDROXY-L-ORNITHYL)GLYCINE EPSILON1-LACTONATO(3-))-

>  <CAS-Nr> (296)
114550-08-2

>  <Compound classification> (296)
AB-Pept

>  <Microorganism> (296)
Bacillus cereus

>  <Microorganism type> (296)
FDA 5

>  <Microorganism classification> (296)
Bac+

>  <NIC> (296)
100

>  <Method abbreviation> (296)
SDT

>  <Ref-Nr> (296)
7429

>  <Marker> (296)
0

>  <Method> (296)
Serial or agar dilution test; Inoculum size: approx. 10E6 CFU/ml; Medium: bacto antibiotic medium, or yeast extract or bacto agar; pH: ---; Incubation-temperature: -- degrees Centigrade; Incubation-time: ---; Solubility enhancer: ---

>  <Reference> (296)
Harada, S., Ono, H., Katayama, N.: Biologically Active Peptides TAN-866; US 4,816,559 (1989)

>  <mol_id> (296)
4824

>  <LD50-mouse-oral> (296)
>1000

>  <LD50-mou-ip> (296)
>1000

>  <MolWeight> (296)
1237.12

>  <Nickname> (296)
TAN-866 A

>  <other Names> (296)
Ferrocin A, TAN 866A, Succinimycin

$$$$

csChmFindW11180110282D

166165  0  0  0  0  0  0  0  0999 V2000
   33.2372    4.3342    1.1119 C   0  0  0  0  0  0  0  0  0  0  0  0
   31.7316    4.4728   -0.2187 C   0  0  0  0  0  0  0  0  0  0  0  0
   30.2142    5.6054    0.4784 C   0  0  0  0  0  0  0  0  0  0  0  0
   28.6967    5.7302   -0.8457 C   0  0  0  0  0  0  0  0  0  0  0  0
   27.1488    6.8085   -0.1276 C   0  0  0  0  0  0  0  0  0  0  0  0
   25.6105    6.8642   -1.4307 C   0  0  0  0  0  0  0  0  0  0  0  0
   24.0299    7.7936   -0.6848 C   0  0  0  0  0  0  0  0  0  0  0  0
   22.9411    8.7983   -1.6372 C   0  0  0  0  0  0  0  0  0  0  0  0
   21.2754    9.6109   -0.9305 C   0  0  0  0  0  0  0  0  0  0  0  0
   19.7110    8.8685   -1.9356 C   0  0  0  0  0  0  0  0  0  0  0  0
   18.4205    7.9910   -1.0246 N   0  0  0  0  0  0  0  0  0  0  0  0
   19.6203    8.9484   -3.5170 O   0  0  0  0  0  0  0  0  0  0  0  0
   18.1885    7.9473    0.8877 C   0  0  0  0  0  0  0  0  0  0  0  0
   16.2262    8.1555    1.2745 C   0  0  0  0  0  0  0  0  0  0  0  0
   15.4384    7.2067    2.2620 O   0  0  0  0  0  0  0  0  0  0  0  0
   15.4541    9.5257    0.3851 N   0  0  0  0  0  0  0  0  0  0  0  0
   18.9330    6.2875    1.7464 C   0  0  0  0  0  0  0  0  0  0  0  0
   20.6830    5.9045    1.2528 O   0  0  0  0  0  0  0  0  0  0  0  0
   21.1102    4.4582    0.3041 C   0  0  0  0  0  0  0  0  0  0  0  0
   22.5394    3.7816    0.4673 O   0  0  0  0  0  0  0  0  0  0  0  0
   19.9017    3.9260   -1.1985 C   0  0  0  0  0  0  0  0  0  0  0  0
   18.3833    2.8923   -0.6232 N   0  0  0  0  0  0  0  0  0  0  0  0
   16.7014    3.5333   -0.7515 C   0  0  0  0  0  0  0  0  0  0  0  0
   16.3521    4.9576   -1.3593 O   0  0  0  0  0  0  0  0  0  0  0  0
   15.2848    2.3765    0.0610 C   0  0  0  0  0  0  0  0  0  0  0  0
   13.5634    3.1551   -0.3091 N   0  0  0  0  0  0  0  0  0  0  0  0
   12.9752    3.3825   -1.9945 C   0  0  0  0  0  0  0  0  0  0  0  0
   13.6909    2.7192   -3.2469 O   0  0  0  0  0  0  0  0  0  0  0  0
   11.4937    4.6959   -2.1607 C   0  0  0  0  0  0  0  0  0  0  0  0
   10.2039    4.6159   -0.7378 N   0  0  0  0  0  0  0  0  0  0  0  0
   10.3949    5.4185    0.8708 C   0  0  0  0  0  0  0  0  0  0  0  0
   11.7535    6.0010    1.4357 O   0  0  0  0  0  0  0  0  0  0  0  0
    8.6922    5.5130    1.9197 C   0  0  0  0  0  0  0  0  0  0  0  0
    7.1653    5.1966    0.7806 N   0  0  0  0  0  0  0  0  0  0  0  0
    8.4890    7.2749    2.8749 C   0  0  0  0  0  0  0  0  0  0  0  0
    6.7572    3.5304    0.2183 C   0  0  0  0  0  0  0  0  0  0  0  0
    7.5288    2.2572    0.7620 O   0  0  0  0  0  0  0  0  0  0  0  0
    5.4484    3.4681   -1.2869 C   0  0  0  0  0  0  0  0  0  0  0  0
    3.8302    2.5425   -0.8034 N   0  0  0  0  0  0  0  0  0  0  0  0
    6.3340    2.4752   -2.8201 C   0  0  0  0  0  0  0  0  0  0  0  0
   15.5325    2.3862    2.0659 C   0  0  0  0  0  0  0  0  0  0  0  0
    2.5107    3.1209    0.2873 C   0  0  0  0  0  0  0  0  0  0  0  0
    1.3977    2.0905    0.7516 O   0  0  0  0  0  0  0  0  0  0  0  0
    2.5064    5.0146    0.9729 C   0  0  0  0  0  0  0  0  0  0  0  0
    3.2768    5.0568    2.8271 C   0  0  0  0  0  0  0  0  0  0  0  0
    2.7958    6.6421    3.7060 O   0  0  0  0  0  0  0  0  0  0  0  0
    3.0318    6.3538   -0.3124 N   0  0  0  0  0  0  0  0  0  0  0  0
    4.1237    7.7504    0.0223 C   0  0  0  0  0  0  0  0  0  0  0  0
    4.8232    8.0401    1.4113 O   0  0  0  0  0  0  0  0  0  0  0  0
    4.4313    8.9736   -1.5250 C   0  0  0  0  0  0  0  0  0  0  0  0
    6.0831    9.9266   -1.2404 N   0  0  0  0  0  0  0  0  0  0  0  0
    2.9266   10.3025   -1.8046 C   0  0  0  0  0  0  0  0  0  0  0  0
    1.0985    9.4521   -1.9033 C   0  0  0  0  0  0  0  0  0  0  0  0
    3.2524   11.3924   -3.4756 C   0  0  0  0  0  0  0  0  0  0  0  0
    7.5921    9.3316   -2.0830 C   0  0  0  0  0  0  0  0  0  0  0  0
    8.1913   10.6483   -1.3705 O   0  0  0  0  0  0  0  0  0  0  0  0
    9.6105    9.5247   -2.4939 C   0  0  0  0  0  0  0  0  0  0  0  0
   10.8163    9.7048   -0.9793 N   0  0  0  0  0  0  0  0  0  0  0  0
   13.5888    9.9828    0.5624 C   0  0  0  0  0  0  0  0  0  0  0  0
   12.6102    9.5980   -1.1317 C   0  0  0  0  0  0  0  0  0  0  0  0
   13.3782    9.2124   -2.4652 O   0  0  0  0  0  0  0  0  0  0  0  0
   14.0868    1.4378    3.1054 C   0  0  0  0  0  0  0  0  0  0  0  0
   14.0049    2.1039    5.0102 C   0  0  0  0  0  0  0  0  0  0  0  0
   12.9663    3.7058    5.1570 N   0  0  0  0  0  0  0  0  0  0  0  0
   11.3548    3.8037    5.9949 C   0  0  0  0  0  0  0  0  0  0  0  0
   10.7808    5.2759    6.0712 O   0  0  0  0  0  0  0  0  0  0  0  0
   13.3936    5.3603    4.4865 O   0  5  0  0  0  0  0  0  0  0  0  0
   10.5011    2.1284    6.6270 C   0  0  0  0  0  0  0  0  0  0  0  0
    5.3839    2.5522   -4.6007 C   0  0  0  0  0  0  0  0  0  0  0  0
    5.4324    4.3736   -5.4750 C   0  0  0  0  0  0  0  0  0  0  0  0
    3.7559    5.2910   -5.2994 N   0  0  0  0  0  0  0  0  0  0  0  0
    3.2787    5.7643   -3.7068 O   0  5  0  0  0  0  0  0  0  0  0  0
    2.4827    5.0659   -6.5717 C   0  0  0  0  0  0  0  0  0  0  0  0
    2.6293    4.0407   -7.7759 O   0  0  0  0  0  0  0  0  0  0  0  0
    0.8755    6.2285   -6.3688 C   0  0  0  0  0  0  0  0  0  0  0  0
   13.3600   11.9060    1.1248 C   0  0  0  0  0  0  0  0  0  0  0  0
   14.1174   12.3526    2.9448 C   0  0  0  0  0  0  0  0  0  0  0  0
   13.1136   11.5578    4.5106 C   0  0  0  0  0  0  0  0  0  0  0  0
   13.6455    9.7672    4.9107 N   0  0  0  0  0  0  0  0  0  0  0  0
   12.7828    8.3284    4.3963 O   0  5  0  0  0  0  0  0  0  0  0  0
   15.1270    9.3299    5.8566 C   0  0  0  0  0  0  0  0  0  0  0  0
   16.1203   10.7925    6.7631 C   0  0  0  0  0  0  0  0  0  0  0  0
   15.4634    7.7853    5.9272 O   0  0  0  0  0  0  0  0  0  0  0  0
   34.3241    3.5061    0.5897 H   0  0  0  0  0  0  0  0  0  0  0  0
   32.7812    3.7307    2.3633 H   0  0  0  0  0  0  0  0  0  0  0  0
   33.7904    5.6518    1.4213 H   0  0  0  0  0  0  0  0  0  0  0  0
   31.2386    3.1274   -0.5261 H   0  0  0  0  0  0  0  0  0  0  0  0
   32.2401    5.0475   -1.4668 H   0  0  0  0  0  0  0  0  0  0  0  0
   30.7075    6.9508    0.7814 H   0  0  0  0  0  0  0  0  0  0  0  0
   29.7203    5.0272    1.7305 H   0  0  0  0  0  0  0  0  0  0  0  0
   28.2327    4.3789   -1.1697 H   0  0  0  0  0  0  0  0  0  0  0  0
   29.1796    6.3368   -2.0883 H   0  0  0  0  0  0  0  0  0  0  0  0
   27.5890    8.1741    0.1670 H   0  0  0  0  0  0  0  0  0  0  0  0
   26.7000    6.2079    1.1316 H   0  0  0  0  0  0  0  0  0  0  0  0
   25.1952    5.4928   -1.7363 H   0  0  0  0  0  0  0  0  0  0  0  0
   26.0340    7.4845   -2.6860 H   0  0  0  0  0  0  0  0  0  0  0  0
   23.7290    7.5491    0.7085 H   0  0  0  0  0  0  0  0  0  0  0  0
   23.2317    9.0084   -3.0399 H   0  0  0  0  0  0  0  0  0  0  0  0
   21.3201   11.0552   -1.1617 H   0  0  0  0  0  0  0  0  0  0  0  0
   21.2248    9.4186    0.5098 H   0  0  0  0  0  0  0  0  0  0  0  0
   17.5308    7.3551   -1.7777 H   0  0  0  0  0  0  0  0  0  0  0  0
   18.7623    9.1368    1.5174 H   0  0  0  0  0  0  0  0  0  0  0  0
   16.1816   10.1997   -0.4947 H   0  0  0  0  0  0  0  0  0  0  0  0
   18.9396    6.4947    3.1978 H   0  0  0  0  0  0  0  0  0  0  0  0
   18.0997    5.1215    1.5598 H   0  0  0  0  0  0  0  0  0  0  0  0
   20.6645    3.0764   -2.1145 H   0  0  0  0  0  0  0  0  0  0  0  0
   19.5280    5.0929   -1.9860 H   0  0  0  0  0  0  0  0  0  0  0  0
   18.5797    1.7025   -0.0731 H   0  0  0  0  0  0  0  0  0  0  0  0
   15.3614    1.0206   -0.4800 H   0  0  0  0  0  0  0  0  0  0  0  0
   12.9046    3.7524    0.6711 H   0  0  0  0  0  0  0  0  0  0  0  0
   10.7881    4.4690   -3.4214 H   0  0  0  0  0  0  0  0  0  0  0  0
   12.0819    6.0309   -2.2213 H   0  0  0  0  0  0  0  0  0  0  0  0
    9.0589    3.9916   -0.9801 H   0  0  0  0  0  0  0  0  0  0  0  0
    8.7722    4.4584    2.9360 H   0  0  0  0  0  0  0  0  0  0  0  0
    6.5196    6.2245    0.2452 H   0  0  0  0  0  0  0  0  0  0  0  0
    8.4078    8.3781    1.9193 H   0  0  0  0  0  0  0  0  0  0  0  0
    9.6091    7.5533    3.7659 H   0  0  0  0  0  0  0  0  0  0  0  0
    7.2829    7.2864    3.7006 H   0  0  0  0  0  0  0  0  0  0  0  0
    5.2189    4.8284   -1.7321 H   0  0  0  0  0  0  0  0  0  0  0  0
    3.7118    1.2741   -1.1737 H   0  0  0  0  0  0  0  0  0  0  0  0
    6.4772    1.0670   -2.4344 H   0  0  0  0  0  0  0  0  0  0  0  0
    7.6953    2.9796   -3.0195 H   0  0  0  0  0  0  0  0  0  0  0  0
   15.5495    3.7861    2.4886 H   0  0  0  0  0  0  0  0  0  0  0  0
   16.8366    1.8260    2.4277 H   0  0  0  0  0  0  0  0  0  0  0  0
    1.0717    5.2877    1.1607 H   0  0  0  0  0  0  0  0  0  0  0  0
    4.7273    4.9462    2.8316 H   0  0  0  0  0  0  0  0  0  0  0  0
    2.7587    3.9588    3.6430 H   0  0  0  0  0  0  0  0  0  0  0  0
    2.9542    7.5557    2.8873 H   0  0  0  0  0  0  0  0  0  0  0  0
    2.5247    6.2635   -1.5300 H   0  0  0  0  0  0  0  0  0  0  0  0
    4.5889    8.1777   -2.7357 H   0  0  0  0  0  0  0  0  0  0  0  0
    6.0042   10.8593   -0.2843 H   0  0  0  0  0  0  0  0  0  0  0  0
    2.9223   11.2199   -0.6558 H   0  0  0  0  0  0  0  0  0  0  0  0
    0.0669   10.4507   -2.1789 H   0  0  0  0  0  0  0  0  0  0  0  0
    0.7236    8.8123   -0.6446 H   0  0  0  0  0  0  0  0  0  0  0  0
    1.0364    8.4516   -2.9650 H   0  0  0  0  0  0  0  0  0  0  0  0
    2.2124   12.4029   -3.6616 H   0  0  0  0  0  0  0  0  0  0  0  0
    3.2625   10.5397   -4.6634 H   0  0  0  0  0  0  0  0  0  0  0  0
    4.5301   12.0997   -3.4208 H   0  0  0  0  0  0  0  0  0  0  0  0
    9.9010    8.2101   -3.0842 H   0  0  0  0  0  0  0  0  0  0  0  0
    9.9531   10.4483   -3.5904 H   0  0  0  0  0  0  0  0  0  0  0  0
   10.2925   10.0172    0.1987 H   0  0  0  0  0  0  0  0  0  0  0  0
   12.9409    9.1291    1.5464 H   0  0  0  0  0  0  0  0  0  0  0  0
   14.3666    0.0000    3.0741 H   0  0  0  0  0  0  0  0  0  0  0  0
   12.7683    1.6169    2.4980 H   0  0  0  0  0  0  0  0  0  0  0  0
   15.3542    2.3774    5.5055 H   0  0  0  0  0  0  0  0  0  0  0  0
   13.4977    1.0447    5.8757 H   0  0  0  0  0  0  0  0  0  0  0  0
    9.1487    2.4218    7.0978 H   0  0  0  0  0  0  0  0  0  0  0  0
   11.2330    1.5572    7.7551 H   0  0  0  0  0  0  0  0  0  0  0  0
   10.3798    1.1543    5.5445 H   0  0  0  0  0  0  0  0  0  0  0  0
    4.0095    2.0704   -4.4644 H   0  0  0  0  0  0  0  0  0  0  0  0
    6.0537    1.6030   -5.4979 H   0  0  0  0  0  0  0  0  0  0  0  0
    5.7991    4.2681   -6.8878 H   0  0  0  0  0  0  0  0  0  0  0  0
    6.4818    5.2011   -4.8790 H   0  0  0  0  0  0  0  0  0  0  0  0
    0.0000    6.1074   -7.5326 H   0  0  0  0  0  0  0  0  0  0  0  0
    1.2703    7.6315   -6.2538 H   0  0  0  0  0  0  0  0  0  0  0  0
    0.1055    5.8435   -5.1877 H   0  0  0  0  0  0  0  0  0  0  0  0
   11.9424   12.2742    1.1095 H   0  0  0  0  0  0  0  0  0  0  0  0
   14.0156   12.7442    0.1156 H   0  0  0  0  0  0  0  0  0  0  0  0
   14.0683   13.8134    3.0844 H   0  0  0  0  0  0  0  0  0  0  0  0
   15.5325   11.9890    2.9937 H   0  0  0  0  0  0  0  0  0  0  0  0
   11.6798   11.5684    4.2166 H   0  0  0  0  0  0  0  0  0  0  0  0
   13.2601   12.3963    5.6988 H   0  0  0  0  0  0  0  0  0  0  0  0
   15.2867   11.4363    7.7759 H   0  0  0  0  0  0  0  0  0  0  0  0
   16.6121   11.7879    5.8163 H   0  0  0  0  0  0  0  0  0  0  0  0
   17.2852   10.2412    7.4521 H   0  0  0  0  0  0  0  0  0  0  0  0
   13.2592    6.4126    4.3349 Fe  0  1  0  0  0  0  0  0  0  0  0  0
  1  2  1  6  0  0  0
  1 84  1  0  0  0  0
  1 85  1  1  0  0  0
  1 86  1  0  0  0  0
  2  3  1  0  0  0  0
  2 87  1  0  0  0  0
  2 88  1  6  0  0  0
  3  4  1  6  0  0  0
  3 89  1  0  0  0  0
  3 90  1  1  0  0  0
  4  5  1  0  0  0  0
  4 91  1  0  0  0  0
  4 92  1  6  0  0  0
  5  6  1  6  0  0  0
  5 93  1  0  0  0  0
  5 94  1  1  0  0  0
  6  7  1  0  0  0  0
  6 95  1  0  0  0  0
  6 96  1  6  0  0  0
  7  8  2  0  0  0  0
  7 97  1  1  0  0  0
  8  9  1  0  0  0  0
  8 98  1  6  0  0  0
  9 10  1  6  0  0  0
  9 99  1  0  0  0  0
  9100  1  1  0  0  0
 10 11  1  1  0  0  0
 10 12  2  0  0  0  0
 11 13  1  1  0  0  0
 11101  1  6  0  0  0
 13 14  1  0  0  0  0
 13 17  1  0  0  0  0
 13102  1  0  0  0  0
 14 15  2  0  0  0  0
 14 16  1  6  0  0  0
 16 59  1  0  0  0  0
 16103  1  6  0  0  0
 17 18  1  0  0  0  0
 17104  1  1  0  0  0
 17105  1  0  0  0  0
 18 19  1  6  0  0  0
 19 20  2  0  0  0  0
 19 21  1  6  0  0  0
 21 22  1  0  0  0  0
 21106  1  6  0  0  0
 21107  1  6  0  0  0
 22 23  1  0  0  0  0
 22108  1  0  0  0  0
 23 24  2  0  0  0  0
 23 25  1  0  0  0  0
 25 26  1  0  0  0  0
 25 41  1  1  0  0  0
 25109  1  0  0  0  0
 26 27  1  6  0  0  0
 26110  1  1  0  0  0
 27 28  2  0  0  0  0
 27 29  1  0  0  0  0
 29 30  1  1  0  0  0
 29111  1  6  0  0  0
 29112  1  0  0  0  0
 30 31  1  1  0  0  0
 30113  1  0  0  0  0
 31 32  2  0  0  0  0
 31 33  1  1  0  0  0
 33 34  1  6  0  0  0
 33 35  1  1  0  0  0
 33114  1  1  0  0  0
 34 36  1  0  0  0  0
 34115  1  0  0  0  0
 35116  1  6  0  0  0
 35117  1  1  0  0  0
 35118  1  1  0  0  0
 36 37  2  0  0  0  0
 36 38  1  6  0  0  0
 38 39  1  0  0  0  0
 38 40  1  6  0  0  0
 38119  1  0  0  0  0
 39 42  1  1  0  0  0
 39120  1  0  0  0  0
 40 69  1  6  0  0  0
 40121  1  0  0  0  0
 40122  1  0  0  0  0
 41 62  1  1  0  0  0
 41123  1  0  0  0  0
 41124  1  0  0  0  0
 42 43  2  0  0  0  0
 42 44  1  0  0  0  0
 44 45  1  1  0  0  0
 44 47  1  6  0  0  0
 44125  1  0  0  0  0
 45 46  1  1  0  0  0
 45126  1  0  0  0  0
 45127  1  1  0  0  0
 46128  1  6  0  0  0
 47 48  1  0  0  0  0
 47129  1  6  0  0  0
 48 49  2  0  0  0  0
 48 50  1  6  0  0  0
 50 51  1  0  0  0  0
 50 52  1  0  0  0  0
 50130  1  6  0  0  0
 51 55  1  6  0  0  0
 51131  1  1  0  0  0
 52 53  1  0  0  0  0
 52 54  1  6  0  0  0
 52132  1  1  0  0  0
 53133  1  0  0  0  0
 53134  1  1  0  0  0
 53135  1  6  0  0  0
 54136  1  0  0  0  0
 54137  1  6  0  0  0
 54138  1  0  0  0  0
 55 56  2  0  0  0  0
 55 57  1  0  0  0  0
 57 58  1  1  0  0  0
 57139  1  0  0  0  0
 57140  1  6  0  0  0
 58 60  1  0  0  0  0
 58141  1  1  0  0  0
 59 60  1  6  0  0  0
 59 76  1  0  0  0  0
 59142  1  1  0  0  0
 60 61  2  0  0  0  0
 62 63  1  1  0  0  0
 62143  1  0  0  0  0
 62144  1  0  0  0  0
 63 64  1  0  0  0  0
 63145  1  0  0  0  0
 63146  1  1  0  0  0
 64 65  1  1  0  0  0
 64 67  1  0  0  0  0
 65 66  2  0  0  0  0
 65 68  1  0  0  0  0
 68147  1  0  0  0  0
 68148  1  1  0  0  0
 68149  1  6  0  0  0
 69 70  1  0  0  0  0
 69150  1  0  0  0  0
 69151  1  6  0  0  0
 70 71  1  0  0  0  0
 70152  1  6  0  0  0
 70153  1  0  0  0  0
 71 72  1  1  0  0  0
 71 73  1  6  0  0  0
 73 74  2  0  0  0  0
 73 75  1  0  0  0  0
 75154  1  6  0  0  0
 75155  1  0  0  0  0
 75156  1  1  0  0  0
 76 77  1  1  0  0  0
 76157  1  0  0  0  0
 76158  1  6  0  0  0
 77 78  1  1  0  0  0
 77159  1  0  0  0  0
 77160  1  0  0  0  0
 78 79  1  0  0  0  0
 78161  1  0  0  0  0
 78162  1  1  0  0  0
 79 80  1  0  0  0  0
 79 81  1  1  0  0  0
 81 82  1  1  0  0  0
 81 83  2  0  0  0  0
 82163  1  1  0  0  0
 82164  1  6  0  0  0
 82165  1  1  0  0  0
M  END
>  <Formula> (297)
C51H82FeN13O19

>  <Name> (297)
IRON, (N-(N5-ACETYL-N2-(N-(N-(N5-ACETYL-N2-(N-(N-(N-(N5-ACETYL-N5-HYDROXY-N2-(N-(1-OXO-3-DECENYL)-L-SERYL)-L-ORNITHYL)GLYCYL)-L-VALYL)-L-SERYL)-N5-HYDROXY-L-ORNITHYL)-L-ALANYL)GLYCYL)-N5-HYDROXY-L-ORNITHYL)GLYCINE EPSILON1-LACTONATO(3-))-

>  <CAS-Nr> (297)
114550-08-2

>  <Compound classification> (297)
AB-Pept

>  <Microorganism> (297)
Bacillus subtilis

>  <Microorganism type> (297)
NIHJ PCI 219

>  <Microorganism classification> (297)
Bac+

>  <NIC> (297)
100

>  <Method abbreviation> (297)
SDT

>  <Ref-Nr> (297)
7429

>  <Marker> (297)
0

>  <Method> (297)
Serial or agar dilution test; Inoculum size: approx. 10E6 CFU/ml; Medium: bacto antibiotic medium, or yeast extract or bacto agar; pH: ---; Incubation-temperature: -- degrees Centigrade; Incubation-time: ---; Solubility enhancer: ---

>  <Reference> (297)
Harada, S., Ono, H., Katayama, N.: Biologically Active Peptides TAN-866; US 4,816,559 (1989)

>  <mol_id> (297)
4824

>  <LD50-mouse-oral> (297)
>1000

>  <LD50-mou-ip> (297)
>1000

>  <MolWeight> (297)
1237.12

>  <Nickname> (297)
TAN-866 A

>  <other Names> (297)
Ferrocin A, TAN 866A, Succinimycin

$$$$

csChmFindW11180110282D

166165  0  0  0  0  0  0  0  0999 V2000
   33.2372    4.3342    1.1119 C   0  0  0  0  0  0  0  0  0  0  0  0
   31.7316    4.4728   -0.2187 C   0  0  0  0  0  0  0  0  0  0  0  0
   30.2142    5.6054    0.4784 C   0  0  0  0  0  0  0  0  0  0  0  0
   28.6967    5.7302   -0.8457 C   0  0  0  0  0  0  0  0  0  0  0  0
   27.1488    6.8085   -0.1276 C   0  0  0  0  0  0  0  0  0  0  0  0
   25.6105    6.8642   -1.4307 C   0  0  0  0  0  0  0  0  0  0  0  0
   24.0299    7.7936   -0.6848 C   0  0  0  0  0  0  0  0  0  0  0  0
   22.9411    8.7983   -1.6372 C   0  0  0  0  0  0  0  0  0  0  0  0
   21.2754    9.6109   -0.9305 C   0  0  0  0  0  0  0  0  0  0  0  0
   19.7110    8.8685   -1.9356 C   0  0  0  0  0  0  0  0  0  0  0  0
   18.4205    7.9910   -1.0246 N   0  0  0  0  0  0  0  0  0  0  0  0
   19.6203    8.9484   -3.5170 O   0  0  0  0  0  0  0  0  0  0  0  0
   18.1885    7.9473    0.8877 C   0  0  0  0  0  0  0  0  0  0  0  0
   16.2262    8.1555    1.2745 C   0  0  0  0  0  0  0  0  0  0  0  0
   15.4384    7.2067    2.2620 O   0  0  0  0  0  0  0  0  0  0  0  0
   15.4541    9.5257    0.3851 N   0  0  0  0  0  0  0  0  0  0  0  0
   18.9330    6.2875    1.7464 C   0  0  0  0  0  0  0  0  0  0  0  0
   20.6830    5.9045    1.2528 O   0  0  0  0  0  0  0  0  0  0  0  0
   21.1102    4.4582    0.3041 C   0  0  0  0  0  0  0  0  0  0  0  0
   22.5394    3.7816    0.4673 O   0  0  0  0  0  0  0  0  0  0  0  0
   19.9017    3.9260   -1.1985 C   0  0  0  0  0  0  0  0  0  0  0  0
   18.3833    2.8923   -0.6232 N   0  0  0  0  0  0  0  0  0  0  0  0
   16.7014    3.5333   -0.7515 C   0  0  0  0  0  0  0  0  0  0  0  0
   16.3521    4.9576   -1.3593 O   0  0  0  0  0  0  0  0  0  0  0  0
   15.2848    2.3765    0.0610 C   0  0  0  0  0  0  0  0  0  0  0  0
   13.5634    3.1551   -0.3091 N   0  0  0  0  0  0  0  0  0  0  0  0
   12.9752    3.3825   -1.9945 C   0  0  0  0  0  0  0  0  0  0  0  0
   13.6909    2.7192   -3.2469 O   0  0  0  0  0  0  0  0  0  0  0  0
   11.4937    4.6959   -2.1607 C   0  0  0  0  0  0  0  0  0  0  0  0
   10.2039    4.6159   -0.7378 N   0  0  0  0  0  0  0  0  0  0  0  0
   10.3949    5.4185    0.8708 C   0  0  0  0  0  0  0  0  0  0  0  0
   11.7535    6.0010    1.4357 O   0  0  0  0  0  0  0  0  0  0  0  0
    8.6922    5.5130    1.9197 C   0  0  0  0  0  0  0  0  0  0  0  0
    7.1653    5.1966    0.7806 N   0  0  0  0  0  0  0  0  0  0  0  0
    8.4890    7.2749    2.8749 C   0  0  0  0  0  0  0  0  0  0  0  0
    6.7572    3.5304    0.2183 C   0  0  0  0  0  0  0  0  0  0  0  0
    7.5288    2.2572    0.7620 O   0  0  0  0  0  0  0  0  0  0  0  0
    5.4484    3.4681   -1.2869 C   0  0  0  0  0  0  0  0  0  0  0  0
    3.8302    2.5425   -0.8034 N   0  0  0  0  0  0  0  0  0  0  0  0
    6.3340    2.4752   -2.8201 C   0  0  0  0  0  0  0  0  0  0  0  0
   15.5325    2.3862    2.0659 C   0  0  0  0  0  0  0  0  0  0  0  0
    2.5107    3.1209    0.2873 C   0  0  0  0  0  0  0  0  0  0  0  0
    1.3977    2.0905    0.7516 O   0  0  0  0  0  0  0  0  0  0  0  0
    2.5064    5.0146    0.9729 C   0  0  0  0  0  0  0  0  0  0  0  0
    3.2768    5.0568    2.8271 C   0  0  0  0  0  0  0  0  0  0  0  0
    2.7958    6.6421    3.7060 O   0  0  0  0  0  0  0  0  0  0  0  0
    3.0318    6.3538   -0.3124 N   0  0  0  0  0  0  0  0  0  0  0  0
    4.1237    7.7504    0.0223 C   0  0  0  0  0  0  0  0  0  0  0  0
    4.8232    8.0401    1.4113 O   0  0  0  0  0  0  0  0  0  0  0  0
    4.4313    8.9736   -1.5250 C   0  0  0  0  0  0  0  0  0  0  0  0
    6.0831    9.9266   -1.2404 N   0  0  0  0  0  0  0  0  0  0  0  0
    2.9266   10.3025   -1.8046 C   0  0  0  0  0  0  0  0  0  0  0  0
    1.0985    9.4521   -1.9033 C   0  0  0  0  0  0  0  0  0  0  0  0
    3.2524   11.3924   -3.4756 C   0  0  0  0  0  0  0  0  0  0  0  0
    7.5921    9.3316   -2.0830 C   0  0  0  0  0  0  0  0  0  0  0  0
    8.1913   10.6483   -1.3705 O   0  0  0  0  0  0  0  0  0  0  0  0
    9.6105    9.5247   -2.4939 C   0  0  0  0  0  0  0  0  0  0  0  0
   10.8163    9.7048   -0.9793 N   0  0  0  0  0  0  0  0  0  0  0  0
   13.5888    9.9828    0.5624 C   0  0  0  0  0  0  0  0  0  0  0  0
   12.6102    9.5980   -1.1317 C   0  0  0  0  0  0  0  0  0  0  0  0
   13.3782    9.2124   -2.4652 O   0  0  0  0  0  0  0  0  0  0  0  0
   14.0868    1.4378    3.1054 C   0  0  0  0  0  0  0  0  0  0  0  0
   14.0049    2.1039    5.0102 C   0  0  0  0  0  0  0  0  0  0  0  0
   12.9663    3.7058    5.1570 N   0  0  0  0  0  0  0  0  0  0  0  0
   11.3548    3.8037    5.9949 C   0  0  0  0  0  0  0  0  0  0  0  0
   10.7808    5.2759    6.0712 O   0  0  0  0  0  0  0  0  0  0  0  0
   13.3936    5.3603    4.4865 O   0  5  0  0  0  0  0  0  0  0  0  0
   10.5011    2.1284    6.6270 C   0  0  0  0  0  0  0  0  0  0  0  0
    5.3839    2.5522   -4.6007 C   0  0  0  0  0  0  0  0  0  0  0  0
    5.4324    4.3736   -5.4750 C   0  0  0  0  0  0  0  0  0  0  0  0
    3.7559    5.2910   -5.2994 N   0  0  0  0  0  0  0  0  0  0  0  0
    3.2787    5.7643   -3.7068 O   0  5  0  0  0  0  0  0  0  0  0  0
    2.4827    5.0659   -6.5717 C   0  0  0  0  0  0  0  0  0  0  0  0
    2.6293    4.0407   -7.7759 O   0  0  0  0  0  0  0  0  0  0  0  0
    0.8755    6.2285   -6.3688 C   0  0  0  0  0  0  0  0  0  0  0  0
   13.3600   11.9060    1.1248 C   0  0  0  0  0  0  0  0  0  0  0  0
   14.1174   12.3526    2.9448 C   0  0  0  0  0  0  0  0  0  0  0  0
   13.1136   11.5578    4.5106 C   0  0  0  0  0  0  0  0  0  0  0  0
   13.6455    9.7672    4.9107 N   0  0  0  0  0  0  0  0  0  0  0  0
   12.7828    8.3284    4.3963 O   0  5  0  0  0  0  0  0  0  0  0  0
   15.1270    9.3299    5.8566 C   0  0  0  0  0  0  0  0  0  0  0  0
   16.1203   10.7925    6.7631 C   0  0  0  0  0  0  0  0  0  0  0  0
   15.4634    7.7853    5.9272 O   0  0  0  0  0  0  0  0  0  0  0  0
   34.3241    3.5061    0.5897 H   0  0  0  0  0  0  0  0  0  0  0  0
   32.7812    3.7307    2.3633 H   0  0  0  0  0  0  0  0  0  0  0  0
   33.7904    5.6518    1.4213 H   0  0  0  0  0  0  0  0  0  0  0  0
   31.2386    3.1274   -0.5261 H   0  0  0  0  0  0  0  0  0  0  0  0
   32.2401    5.0475   -1.4668 H   0  0  0  0  0  0  0  0  0  0  0  0
   30.7075    6.9508    0.7814 H   0  0  0  0  0  0  0  0  0  0  0  0
   29.7203    5.0272    1.7305 H   0  0  0  0  0  0  0  0  0  0  0  0
   28.2327    4.3789   -1.1697 H   0  0  0  0  0  0  0  0  0  0  0  0
   29.1796    6.3368   -2.0883 H   0  0  0  0  0  0  0  0  0  0  0  0
   27.5890    8.1741    0.1670 H   0  0  0  0  0  0  0  0  0  0  0  0
   26.7000    6.2079    1.1316 H   0  0  0  0  0  0  0  0  0  0  0  0
   25.1952    5.4928   -1.7363 H   0  0  0  0  0  0  0  0  0  0  0  0
   26.0340    7.4845   -2.6860 H   0  0  0  0  0  0  0  0  0  0  0  0
   23.7290    7.5491    0.7085 H   0  0  0  0  0  0  0  0  0  0  0  0
   23.2317    9.0084   -3.0399 H   0  0  0  0  0  0  0  0  0  0  0  0
   21.3201   11.0552   -1.1617 H   0  0  0  0  0  0  0  0  0  0  0  0
   21.2248    9.4186    0.5098 H   0  0  0  0  0  0  0  0  0  0  0  0
   17.5308    7.3551   -1.7777 H   0  0  0  0  0  0  0  0  0  0  0  0
   18.7623    9.1368    1.5174 H   0  0  0  0  0  0  0  0  0  0  0  0
   16.1816   10.1997   -0.4947 H   0  0  0  0  0  0  0  0  0  0  0  0
   18.9396    6.4947    3.1978 H   0  0  0  0  0  0  0  0  0  0  0  0
   18.0997    5.1215    1.5598 H   0  0  0  0  0  0  0  0  0  0  0  0
   20.6645    3.0764   -2.1145 H   0  0  0  0  0  0  0  0  0  0  0  0
   19.5280    5.0929   -1.9860 H   0  0  0  0  0  0  0  0  0  0  0  0
   18.5797    1.7025   -0.0731 H   0  0  0  0  0  0  0  0  0  0  0  0
   15.3614    1.0206   -0.4800 H   0  0  0  0  0  0  0  0  0  0  0  0
   12.9046    3.7524    0.6711 H   0  0  0  0  0  0  0  0  0  0  0  0
   10.7881    4.4690   -3.4214 H   0  0  0  0  0  0  0  0  0  0  0  0
   12.0819    6.0309   -2.2213 H   0  0  0  0  0  0  0  0  0  0  0  0
    9.0589    3.9916   -0.9801 H   0  0  0  0  0  0  0  0  0  0  0  0
    8.7722    4.4584    2.9360 H   0  0  0  0  0  0  0  0  0  0  0  0
    6.5196    6.2245    0.2452 H   0  0  0  0  0  0  0  0  0  0  0  0
    8.4078    8.3781    1.9193 H   0  0  0  0  0  0  0  0  0  0  0  0
    9.6091    7.5533    3.7659 H   0  0  0  0  0  0  0  0  0  0  0  0
    7.2829    7.2864    3.7006 H   0  0  0  0  0  0  0  0  0  0  0  0
    5.2189    4.8284   -1.7321 H   0  0  0  0  0  0  0  0  0  0  0  0
    3.7118    1.2741   -1.1737 H   0  0  0  0  0  0  0  0  0  0  0  0
    6.4772    1.0670   -2.4344 H   0  0  0  0  0  0  0  0  0  0  0  0
    7.6953    2.9796   -3.0195 H   0  0  0  0  0  0  0  0  0  0  0  0
   15.5495    3.7861    2.4886 H   0  0  0  0  0  0  0  0  0  0  0  0
   16.8366    1.8260    2.4277 H   0  0  0  0  0  0  0  0  0  0  0  0
    1.0717    5.2877    1.1607 H   0  0  0  0  0  0  0  0  0  0  0  0
    4.7273    4.9462    2.8316 H   0  0  0  0  0  0  0  0  0  0  0  0
    2.7587    3.9588    3.6430 H   0  0  0  0  0  0  0  0  0  0  0  0
    2.9542    7.5557    2.8873 H   0  0  0  0  0  0  0  0  0  0  0  0
    2.5247    6.2635   -1.5300 H   0  0  0  0  0  0  0  0  0  0  0  0
    4.5889    8.1777   -2.7357 H   0  0  0  0  0  0  0  0  0  0  0  0
    6.0042   10.8593   -0.2843 H   0  0  0  0  0  0  0  0  0  0  0  0
    2.9223   11.2199   -0.6558 H   0  0  0  0  0  0  0  0  0  0  0  0
    0.0669   10.4507   -2.1789 H   0  0  0  0  0  0  0  0  0  0  0  0
    0.7236    8.8123   -0.6446 H   0  0  0  0  0  0  0  0  0  0  0  0
    1.0364    8.4516   -2.9650 H   0  0  0  0  0  0  0  0  0  0  0  0
    2.2124   12.4029   -3.6616 H   0  0  0  0  0  0  0  0  0  0  0  0
    3.2625   10.5397   -4.6634 H   0  0  0  0  0  0  0  0  0  0  0  0
    4.5301   12.0997   -3.4208 H   0  0  0  0  0  0  0  0  0  0  0  0
    9.9010    8.2101   -3.0842 H   0  0  0  0  0  0  0  0  0  0  0  0
    9.9531   10.4483   -3.5904 H   0  0  0  0  0  0  0  0  0  0  0  0
   10.2925   10.0172    0.1987 H   0  0  0  0  0  0  0  0  0  0  0  0
   12.9409    9.1291    1.5464 H   0  0  0  0  0  0  0  0  0  0  0  0
   14.3666    0.0000    3.0741 H   0  0  0  0  0  0  0  0  0  0  0  0
   12.7683    1.6169    2.4980 H   0  0  0  0  0  0  0  0  0  0  0  0
   15.3542    2.3774    5.5055 H   0  0  0  0  0  0  0  0  0  0  0  0
   13.4977    1.0447    5.8757 H   0  0  0  0  0  0  0  0  0  0  0  0
    9.1487    2.4218    7.0978 H   0  0  0  0  0  0  0  0  0  0  0  0
   11.2330    1.5572    7.7551 H   0  0  0  0  0  0  0  0  0  0  0  0
   10.3798    1.1543    5.5445 H   0  0  0  0  0  0  0  0  0  0  0  0
    4.0095    2.0704   -4.4644 H   0  0  0  0  0  0  0  0  0  0  0  0
    6.0537    1.6030   -5.4979 H   0  0  0  0  0  0  0  0  0  0  0  0
    5.7991    4.2681   -6.8878 H   0  0  0  0  0  0  0  0  0  0  0  0
    6.4818    5.2011   -4.8790 H   0  0  0  0  0  0  0  0  0  0  0  0
    0.0000    6.1074   -7.5326 H   0  0  0  0  0  0  0  0  0  0  0  0
    1.2703    7.6315   -6.2538 H   0  0  0  0  0  0  0  0  0  0  0  0
    0.1055    5.8435   -5.1877 H   0  0  0  0  0  0  0  0  0  0  0  0
   11.9424   12.2742    1.1095 H   0  0  0  0  0  0  0  0  0  0  0  0
   14.0156   12.7442    0.1156 H   0  0  0  0  0  0  0  0  0  0  0  0
   14.0683   13.8134    3.0844 H   0  0  0  0  0  0  0  0  0  0  0  0
   15.5325   11.9890    2.9937 H   0  0  0  0  0  0  0  0  0  0  0  0
   11.6798   11.5684    4.2166 H   0  0  0  0  0  0  0  0  0  0  0  0
   13.2601   12.3963    5.6988 H   0  0  0  0  0  0  0  0  0  0  0  0
   15.2867   11.4363    7.7759 H   0  0  0  0  0  0  0  0  0  0  0  0
   16.6121   11.7879    5.8163 H   0  0  0  0  0  0  0  0  0  0  0  0
   17.2852   10.2412    7.4521 H   0  0  0  0  0  0  0  0  0  0  0  0
   13.2592    6.4126    4.3349 Fe  0  1  0  0  0  0  0  0  0  0  0  0
  1  2  1  6  0  0  0
  1 84  1  0  0  0  0
  1 85  1  1  0  0  0
  1 86  1  0  0  0  0
  2  3  1  0  0  0  0
  2 87  1  0  0  0  0
  2 88  1  6  0  0  0
  3  4  1  6  0  0  0
  3 89  1  0  0  0  0
  3 90  1  1  0  0  0
  4  5  1  0  0  0  0
  4 91  1  0  0  0  0
  4 92  1  6  0  0  0
  5  6  1  6  0  0  0
  5 93  1  0  0  0  0
  5 94  1  1  0  0  0
  6  7  1  0  0  0  0
  6 95  1  0  0  0  0
  6 96  1  6  0  0  0
  7  8  2  0  0  0  0
  7 97  1  1  0  0  0
  8  9  1  0  0  0  0
  8 98  1  6  0  0  0
  9 10  1  6  0  0  0
  9 99  1  0  0  0  0
  9100  1  1  0  0  0
 10 11  1  1  0  0  0
 10 12  2  0  0  0  0
 11 13  1  1  0  0  0
 11101  1  6  0  0  0
 13 14  1  0  0  0  0
 13 17  1  0  0  0  0
 13102  1  0  0  0  0
 14 15  2  0  0  0  0
 14 16  1  6  0  0  0
 16 59  1  0  0  0  0
 16103  1  6  0  0  0
 17 18  1  0  0  0  0
 17104  1  1  0  0  0
 17105  1  0  0  0  0
 18 19  1  6  0  0  0
 19 20  2  0  0  0  0
 19 21  1  6  0  0  0
 21 22  1  0  0  0  0
 21106  1  6  0  0  0
 21107  1  6  0  0  0
 22 23  1  0  0  0  0
 22108  1  0  0  0  0
 23 24  2  0  0  0  0
 23 25  1  0  0  0  0
 25 26  1  0  0  0  0
 25 41  1  1  0  0  0
 25109  1  0  0  0  0
 26 27  1  6  0  0  0
 26110  1  1  0  0  0
 27 28  2  0  0  0  0
 27 29  1  0  0  0  0
 29 30  1  1  0  0  0
 29111  1  6  0  0  0
 29112  1  0  0  0  0
 30 31  1  1  0  0  0
 30113  1  0  0  0  0
 31 32  2  0  0  0  0
 31 33  1  1  0  0  0
 33 34  1  6  0  0  0
 33 35  1  1  0  0  0
 33114  1  1  0  0  0
 34 36  1  0  0  0  0
 34115  1  0  0  0  0
 35116  1  6  0  0  0
 35117  1  1  0  0  0
 35118  1  1  0  0  0
 36 37  2  0  0  0  0
 36 38  1  6  0  0  0
 38 39  1  0  0  0  0
 38 40  1  6  0  0  0
 38119  1  0  0  0  0
 39 42  1  1  0  0  0
 39120  1  0  0  0  0
 40 69  1  6  0  0  0
 40121  1  0  0  0  0
 40122  1  0  0  0  0
 41 62  1  1  0  0  0
 41123  1  0  0  0  0
 41124  1  0  0  0  0
 42 43  2  0  0  0  0
 42 44  1  0  0  0  0
 44 45  1  1  0  0  0
 44 47  1  6  0  0  0
 44125  1  0  0  0  0
 45 46  1  1  0  0  0
 45126  1  0  0  0  0
 45127  1  1  0  0  0
 46128  1  6  0  0  0
 47 48  1  0  0  0  0
 47129  1  6  0  0  0
 48 49  2  0  0  0  0
 48 50  1  6  0  0  0
 50 51  1  0  0  0  0
 50 52  1  0  0  0  0
 50130  1  6  0  0  0
 51 55  1  6  0  0  0
 51131  1  1  0  0  0
 52 53  1  0  0  0  0
 52 54  1  6  0  0  0
 52132  1  1  0  0  0
 53133  1  0  0  0  0
 53134  1  1  0  0  0
 53135  1  6  0  0  0
 54136  1  0  0  0  0
 54137  1  6  0  0  0
 54138  1  0  0  0  0
 55 56  2  0  0  0  0
 55 57  1  0  0  0  0
 57 58  1  1  0  0  0
 57139  1  0  0  0  0
 57140  1  6  0  0  0
 58 60  1  0  0  0  0
 58141  1  1  0  0  0
 59 60  1  6  0  0  0
 59 76  1  0  0  0  0
 59142  1  1  0  0  0
 60 61  2  0  0  0  0
 62 63  1  1  0  0  0
 62143  1  0  0  0  0
 62144  1  0  0  0  0
 63 64  1  0  0  0  0
 63145  1  0  0  0  0
 63146  1  1  0  0  0
 64 65  1  1  0  0  0
 64 67  1  0  0  0  0
 65 66  2  0  0  0  0
 65 68  1  0  0  0  0
 68147  1  0  0  0  0
 68148  1  1  0  0  0
 68149  1  6  0  0  0
 69 70  1  0  0  0  0
 69150  1  0  0  0  0
 69151  1  6  0  0  0
 70 71  1  0  0  0  0
 70152  1  6  0  0  0
 70153  1  0  0  0  0
 71 72  1  1  0  0  0
 71 73  1  6  0  0  0
 73 74  2  0  0  0  0
 73 75  1  0  0  0  0
 75154  1  6  0  0  0
 75155  1  0  0  0  0
 75156  1  1  0  0  0
 76 77  1  1  0  0  0
 76157  1  0  0  0  0
 76158  1  6  0  0  0
 77 78  1  1  0  0  0
 77159  1  0  0  0  0
 77160  1  0  0  0  0
 78 79  1  0  0  0  0
 78161  1  0  0  0  0
 78162  1  1  0  0  0
 79 80  1  0  0  0  0
 79 81  1  1  0  0  0
 81 82  1  1  0  0  0
 81 83  2  0  0  0  0
 82163  1  1  0  0  0
 82164  1  6  0  0  0
 82165  1  1  0  0  0
M  END
>  <Formula> (298)
C51H82FeN13O19

>  <Name> (298)
IRON, (N-(N5-ACETYL-N2-(N-(N-(N5-ACETYL-N2-(N-(N-(N-(N5-ACETYL-N5-HYDROXY-N2-(N-(1-OXO-3-DECENYL)-L-SERYL)-L-ORNITHYL)GLYCYL)-L-VALYL)-L-SERYL)-N5-HYDROXY-L-ORNITHYL)-L-ALANYL)GLYCYL)-N5-HYDROXY-L-ORNITHYL)GLYCINE EPSILON1-LACTONATO(3-))-

>  <CAS-Nr> (298)
114550-08-2

>  <Compound classification> (298)
AB-Pept

>  <Microorganism> (298)
Micrococcus luteus

>  <Microorganism type> (298)
IFO 12708

>  <Microorganism classification> (298)
Bac+

>  <NIC> (298)
100

>  <Method abbreviation> (298)
SDT

>  <Ref-Nr> (298)
7429

>  <Marker> (298)
0

>  <Method> (298)
Serial or agar dilution test; Inoculum size: approx. 10E6 CFU/ml; Medium: bacto antibiotic medium, or yeast extract or bacto agar; pH: ---; Incubation-temperature: -- degrees Centigrade; Incubation-time: ---; Solubility enhancer: ---

>  <Reference> (298)
Harada, S., Ono, H., Katayama, N.: Biologically Active Peptides TAN-866; US 4,816,559 (1989)

>  <mol_id> (298)
4824

>  <LD50-mouse-oral> (298)
>1000

>  <LD50-mou-ip> (298)
>1000

>  <MolWeight> (298)
1237.12

>  <Nickname> (298)
TAN-866 A

>  <other Names> (298)
Ferrocin A, TAN 866A, Succinimycin

$$$$

csChmFindW11180110282D

 76 78  0  0  0  0  0  0  0  0999 V2000
   14.0879    5.6417   -1.0658 C   0  0  0  0  0  0  0  0  0  0  0  0
   16.1010    4.8369   -1.1559 C   0  0  0  0  0  0  0  0  0  0  0  0
   17.3773    5.6823    0.3998 C   0  0  0  0  0  0  0  0  0  0  0  0
   17.2012    7.8685    0.3935 C   0  0  0  0  0  0  0  0  0  0  0  0
   15.1150    8.3995    0.5805 C   0  0  0  0  0  0  0  0  0  0  0  0
   13.9946    7.6217   -0.8850 O   0  0  0  0  0  0  0  0  0  0  0  0
   17.9881    8.6292   -1.2794 O   0  0  0  0  0  0  0  0  0  0  0  0
   18.2938    8.7455    2.0176 C   0  0  0  0  0  0  0  0  0  0  0  0
   19.2927    4.9925    0.1864 N   0  0  0  0  0  0  0  0  0  0  0  0
   20.2169    4.4635    1.9074 C   0  0  0  0  0  0  0  0  0  0  0  0
   16.7440    5.2741   -2.9980 O   0  0  0  0  0  0  0  0  0  0  0  0
   13.2116    4.9495    0.5864 O   0  0  0  0  0  0  0  0  0  0  0  0
    7.9444    5.2945   -0.0824 C   0  0  0  0  0  0  0  0  0  0  0  0
   10.0040    5.9498   -0.1659 C   0  0  0  0  0  0  0  0  0  0  0  0
   11.3163    4.3267    0.4106 C   0  0  0  0  0  0  0  0  0  0  0  0
   11.0603    2.6474   -0.9487 C   0  0  0  0  0  0  0  0  0  0  0  0
    8.9956    2.0130   -0.8093 C   0  0  0  0  0  0  0  0  0  0  0  0
    7.6082    3.5654   -1.3802 C   0  0  0  0  0  0  0  0  0  0  0  0
   12.4375    1.1749   -0.6271 N   0  0  0  0  0  0  0  0  0  0  0  0
    7.6206    3.9389   -3.3833 N   0  0  0  0  0  0  0  0  0  0  0  0
   10.1943    7.4639    1.1224 O   0  0  0  0  0  0  0  0  0  0  0  0
    6.7412    6.7596   -0.7547 O   0  0  0  0  0  0  0  0  0  0  0  0
    2.5947    9.4038    2.1416 C   0  0  0  0  0  0  0  0  0  0  0  0
    3.9283   10.7275    1.1347 C   0  0  0  0  0  0  0  0  0  0  0  0
    5.0443    9.6361   -0.3608 C   0  0  0  0  0  0  0  0  0  0  0  0
    6.0425    7.9728    0.6614 C   0  0  0  0  0  0  0  0  0  0  0  0
    4.7440    6.7864    1.6259 O   0  0  0  0  0  0  0  0  0  0  0  0
    3.6797    7.7767    3.0191 C   0  0  0  0  0  0  0  0  0  0  0  0
    2.3745    6.3094    3.9802 C   0  0  0  0  0  0  0  0  0  0  0  0
    3.3743    4.8401    5.0011 N   0  0  0  0  0  0  0  0  0  0  0  0
    4.4070    5.4650    6.6249 C   0  0  0  0  0  0  0  0  0  0  0  0
    1.0254    5.4533    2.5377 C   0  0  0  0  0  0  0  0  0  0  0  0
    6.3002   10.8247   -1.4326 N   0  0  0  0  0  0  0  0  0  0  0  0
   13.3035    5.3193   -2.4038 H   0  0  0  0  0  0  0  0  0  0  0  0
   16.0146    3.2644   -0.9678 H   0  0  0  0  0  0  0  0  0  0  0  0
   16.7670    5.1737    1.7799 H   0  0  0  0  0  0  0  0  0  0  0  0
   14.9276    9.9598    0.4059 H   0  0  0  0  0  0  0  0  0  0  0  0
   14.5666    7.9229    1.9823 H   0  0  0  0  0  0  0  0  0  0  0  0
   17.2117    8.1974   -2.3154 H   0  0  0  0  0  0  0  0  0  0  0  0
   17.9406   10.2729    2.1330 H   0  0  0  0  0  0  0  0  0  0  0  0
   19.8393    8.6205    1.7616 H   0  0  0  0  0  0  0  0  0  0  0  0
   17.9244    8.0238    3.3619 H   0  0  0  0  0  0  0  0  0  0  0  0
   20.0572    5.9346   -0.5418 H   0  0  0  0  0  0  0  0  0  0  0  0
   21.6665    3.9455    1.5521 H   0  0  0  0  0  0  0  0  0  0  0  0
   19.4125    3.2873    2.5895 H   0  0  0  0  0  0  0  0  0  0  0  0
   20.3492    5.6437    2.9563 H   0  0  0  0  0  0  0  0  0  0  0  0
   17.9183    4.6133   -3.1740 H   0  0  0  0  0  0  0  0  0  0  0  0
    7.5730    4.9117    1.4067 H   0  0  0  0  0  0  0  0  0  0  0  0
   10.3696    6.4577   -1.6227 H   0  0  0  0  0  0  0  0  0  0  0  0
   10.9773    3.8826    1.9005 H   0  0  0  0  0  0  0  0  0  0  0  0
   11.3229    3.1514   -2.4377 H   0  0  0  0  0  0  0  0  0  0  0  0
    8.6694    1.5873    0.6755 H   0  0  0  0  0  0  0  0  0  0  0  0
    8.7653    0.7529   -1.7332 H   0  0  0  0  0  0  0  0  0  0  0  0
    6.1386    3.0442   -1.0399 H   0  0  0  0  0  0  0  0  0  0  0  0
   12.0615    0.0000   -1.3098 H   0  0  0  0  0  0  0  0  0  0  0  0
   12.5649    0.8936    0.7479 H   0  0  0  0  0  0  0  0  0  0  0  0
    8.8571    4.4837   -3.7867 H   0  0  0  0  0  0  0  0  0  0  0  0
    6.5981    4.8617   -3.6955 H   0  0  0  0  0  0  0  0  0  0  0  0
   11.4993    7.8577    1.0598 H   0  0  0  0  0  0  0  0  0  0  0  0
    1.5374    8.8469    1.1103 H   0  0  0  0  0  0  0  0  0  0  0  0
    1.8147   10.1786    3.2715 H   0  0  0  0  0  0  0  0  0  0  0  0
    4.9173   11.3900    2.1714 H   0  0  0  0  0  0  0  0  0  0  0  0
    3.1124   11.8864    0.4420 H   0  0  0  0  0  0  0  0  0  0  0  0
    4.0132    8.9956   -1.3915 H   0  0  0  0  0  0  0  0  0  0  0  0
    7.1835    8.4571    1.6483 H   0  0  0  0  0  0  0  0  0  0  0  0
    4.6937    8.3627    4.0951 H   0  0  0  0  0  0  0  0  0  0  0  0
    1.5172    7.1262    5.0460 H   0  0  0  0  0  0  0  0  0  0  0  0
    4.2111    4.1305    4.1108 H   0  0  0  0  0  0  0  0  0  0  0  0
    4.9738    4.1891    7.3657 H   0  0  0  0  0  0  0  0  0  0  0  0
    3.4332    6.2271    7.6074 H   0  0  0  0  0  0  0  0  0  0  0  0
    5.6238    6.4248    6.2956 H   0  0  0  0  0  0  0  0  0  0  0  0
    0.2186    4.2591    3.1658 H   0  0  0  0  0  0  0  0  0  0  0  0
    1.8201    4.9310    1.2863 H   0  0  0  0  0  0  0  0  0  0  0  0
    0.0000    6.5476    2.0697 H   0  0  0  0  0  0  0  0  0  0  0  0
    6.9902   10.0482   -2.3872 H   0  0  0  0  0  0  0  0  0  0  0  0
    7.2382   11.4547   -0.5891 H   0  0  0  0  0  0  0  0  0  0  0  0
  1  2  1  0  0  0  0
  1  6  1  0  0  0  0
  1 12  1  1  0  0  0
  1 34  1  6  0  0  0
  2  3  1  1  0  0  0
  2 11  1  6  0  0  0
  2 35  1  0  0  0  0
  3  4  1  0  0  0  0
  3  9  1  0  0  0  0
  3 36  1  1  0  0  0
  4  5  1  0  0  0  0
  4  7  1  6  0  0  0
  4  8  1  1  0  0  0
  5  6  1  6  0  0  0
  5 37  1  0  0  0  0
  5 38  1  1  0  0  0
  7 39  1  6  0  0  0
  8 40  1  0  0  0  0
  8 41  1  0  0  0  0
  8 42  1  1  0  0  0
  9 10  1  1  0  0  0
  9 43  1  6  0  0  0
 10 44  1  0  0  0  0
 10 45  1  0  0  0  0
 10 46  1  1  0  0  0
 11 47  1  0  0  0  0
 12 15  1  0  0  0  0
 13 14  1  0  0  0  0
 13 18  1  6  0  0  0
 13 22  1  0  0  0  0
 13 48  1  1  0  0  0
 14 15  1  0  0  0  0
 14 21  1  1  0  0  0
 14 49  1  6  0  0  0
 15 16  1  6  0  0  0
 15 50  1  1  0  0  0
 16 17  1  0  0  0  0
 16 19  1  0  0  0  0
 16 51  1  6  0  0  0
 17 18  1  0  0  0  0
 17 52  1  1  0  0  0
 17 53  1  6  0  0  0
 18 20  1  6  0  0  0
 18 54  1  0  0  0  0
 19 55  1  6  0  0  0
 19 56  1  1  0  0  0
 20 57  1  0  0  0  0
 20 58  1  0  0  0  0
 21 59  1  0  0  0  0
 22 26  1  1  0  0  0
 23 24  1  6  0  0  0
 23 28  1  0  0  0  0
 23 60  1  6  0  0  0
 23 61  1  1  0  0  0
 24 25  1  6  0  0  0
 24 62  1  1  0  0  0
 24 63  1  0  0  0  0
 25 26  1  1  0  0  0
 25 33  1  6  0  0  0
 25 64  1  6  0  0  0
 26 27  1  1  0  0  0
 26 65  1  1  0  0  0
 27 28  1  1  0  0  0
 28 29  1  0  0  0  0
 28 66  1  1  0  0  0
 29 30  1  1  0  0  0
 29 32  1  6  0  0  0
 29 67  1  1  0  0  0
 30 31  1  1  0  0  0
 30 68  1  6  0  0  0
 31 69  1  1  0  0  0
 31 70  1  1  0  0  0
 31 71  1  0  0  0  0
 32 72  1  0  0  0  0
 32 73  1  6  0  0  0
 32 74  1  0  0  0  0
 33 75  1  6  0  0  0
 33 76  1  1  0  0  0
M  END
>  <Formula> (299)
C21H43N5O7

>  <Name> (299)
2-{4,6-DIAMINO-3-[3-AMINO-6-(1-METHYLAMINO-ETHYL)-TETRAHYDRO-PYRAN-2-YLOXY]-2-HYDROXY-CYCLOHEXYLOXY)-5-METHYL-4-METHYLAMINO-TETRAHYDRO-PYRAN-3,5-DIOL

>  <CAS-Nr> (299)
1403-66-3

>  <EINECS> (299)
215-765-8

>  <21 CFR> (299)
556.300, 520.1044a, 520.1044b, 520.1044c, 524.1044

>  <LD50-rat-oral> (299)
6600

>  <Compound classification> (299)
AB-AmGl

>  <Microorganism> (299)
Bacillus subtilis

>  <Microorganism classification> (299)
Bac+

>  <MIC> (299)
0.4

>  <Method abbreviation> (299)
SDT

>  <Ref-Nr> (299)
7449

>  <Marker> (299)
0

>  <Method> (299)
Serial dilution test; Inoculum size: ---; Medium: ---; pH: ---; Incubation-temperature: -- degrees Centigrade; Incubation-time: ---; Solubility enhancer: ---

>  <Reference> (299)
Manakata, K., Oda, T., Mori, T., Ito, H.: Quintomycin Compounds; US 3,870,698 (1975)

>  <mol_id> (299)
2159

>  <LD50-mouse-oral> (299)
>10000

>  <LD50-mou-ip> (299)
235

>  <MolWeight> (299)
477.60

>  <Nickname> (299)
Gentamycin Antibiotic complex (C1 Structure)

>  <other Names> (299)
Cidomycin, Garamycin, Garasol, Gentacycol, Gentamicin, Gentamicina, Gentamicine, Gentamicinum, Gentamycin, Gentamycin-crme, Gentamycinum, Gentavet, Gentocin, HSDB 3087, Refobacin, Refobacin TM, Uromycine

>  <LD50-mou-iv> (299)
43,5

$$$$

csChmFindW11180110282D

 76 78  0  0  0  0  0  0  0  0999 V2000
   14.0879    5.6417   -1.0658 C   0  0  0  0  0  0  0  0  0  0  0  0
   16.1010    4.8369   -1.1559 C   0  0  0  0  0  0  0  0  0  0  0  0
   17.3773    5.6823    0.3998 C   0  0  0  0  0  0  0  0  0  0  0  0
   17.2012    7.8685    0.3935 C   0  0  0  0  0  0  0  0  0  0  0  0
   15.1150    8.3995    0.5805 C   0  0  0  0  0  0  0  0  0  0  0  0
   13.9946    7.6217   -0.8850 O   0  0  0  0  0  0  0  0  0  0  0  0
   17.9881    8.6292   -1.2794 O   0  0  0  0  0  0  0  0  0  0  0  0
   18.2938    8.7455    2.0176 C   0  0  0  0  0  0  0  0  0  0  0  0
   19.2927    4.9925    0.1864 N   0  0  0  0  0  0  0  0  0  0  0  0
   20.2169    4.4635    1.9074 C   0  0  0  0  0  0  0  0  0  0  0  0
   16.7440    5.2741   -2.9980 O   0  0  0  0  0  0  0  0  0  0  0  0
   13.2116    4.9495    0.5864 O   0  0  0  0  0  0  0  0  0  0  0  0
    7.9444    5.2945   -0.0824 C   0  0  0  0  0  0  0  0  0  0  0  0
   10.0040    5.9498   -0.1659 C   0  0  0  0  0  0  0  0  0  0  0  0
   11.3163    4.3267    0.4106 C   0  0  0  0  0  0  0  0  0  0  0  0
   11.0603    2.6474   -0.9487 C   0  0  0  0  0  0  0  0  0  0  0  0
    8.9956    2.0130   -0.8093 C   0  0  0  0  0  0  0  0  0  0  0  0
    7.6082    3.5654   -1.3802 C   0  0  0  0  0  0  0  0  0  0  0  0
   12.4375    1.1749   -0.6271 N   0  0  0  0  0  0  0  0  0  0  0  0
    7.6206    3.9389   -3.3833 N   0  0  0  0  0  0  0  0  0  0  0  0
   10.1943    7.4639    1.1224 O   0  0  0  0  0  0  0  0  0  0  0  0
    6.7412    6.7596   -0.7547 O   0  0  0  0  0  0  0  0  0  0  0  0
    2.5947    9.4038    2.1416 C   0  0  0  0  0  0  0  0  0  0  0  0
    3.9283   10.7275    1.1347 C   0  0  0  0  0  0  0  0  0  0  0  0
    5.0443    9.6361   -0.3608 C   0  0  0  0  0  0  0  0  0  0  0  0
    6.0425    7.9728    0.6614 C   0  0  0  0  0  0  0  0  0  0  0  0
    4.7440    6.7864    1.6259 O   0  0  0  0  0  0  0  0  0  0  0  0
    3.6797    7.7767    3.0191 C   0  0  0  0  0  0  0  0  0  0  0  0
    2.3745    6.3094    3.9802 C   0  0  0  0  0  0  0  0  0  0  0  0
    3.3743    4.8401    5.0011 N   0  0  0  0  0  0  0  0  0  0  0  0
    4.4070    5.4650    6.6249 C   0  0  0  0  0  0  0  0  0  0  0  0
    1.0254    5.4533    2.5377 C   0  0  0  0  0  0  0  0  0  0  0  0
    6.3002   10.8247   -1.4326 N   0  0  0  0  0  0  0  0  0  0  0  0
   13.3035    5.3193   -2.4038 H   0  0  0  0  0  0  0  0  0  0  0  0
   16.0146    3.2644   -0.9678 H   0  0  0  0  0  0  0  0  0  0  0  0
   16.7670    5.1737    1.7799 H   0  0  0  0  0  0  0  0  0  0  0  0
   14.9276    9.9598    0.4059 H   0  0  0  0  0  0  0  0  0  0  0  0
   14.5666    7.9229    1.9823 H   0  0  0  0  0  0  0  0  0  0  0  0
   17.2117    8.1974   -2.3154 H   0  0  0  0  0  0  0  0  0  0  0  0
   17.9406   10.2729    2.1330 H   0  0  0  0  0  0  0  0  0  0  0  0
   19.8393    8.6205    1.7616 H   0  0  0  0  0  0  0  0  0  0  0  0
   17.9244    8.0238    3.3619 H   0  0  0  0  0  0  0  0  0  0  0  0
   20.0572    5.9346   -0.5418 H   0  0  0  0  0  0  0  0  0  0  0  0
   21.6665    3.9455    1.5521 H   0  0  0  0  0  0  0  0  0  0  0  0
   19.4125    3.2873    2.5895 H   0  0  0  0  0  0  0  0  0  0  0  0
   20.3492    5.6437    2.9563 H   0  0  0  0  0  0  0  0  0  0  0  0
   17.9183    4.6133   -3.1740 H   0  0  0  0  0  0  0  0  0  0  0  0
    7.5730    4.9117    1.4067 H   0  0  0  0  0  0  0  0  0  0  0  0
   10.3696    6.4577   -1.6227 H   0  0  0  0  0  0  0  0  0  0  0  0
   10.9773    3.8826    1.9005 H   0  0  0  0  0  0  0  0  0  0  0  0
   11.3229    3.1514   -2.4377 H   0  0  0  0  0  0  0  0  0  0  0  0
    8.6694    1.5873    0.6755 H   0  0  0  0  0  0  0  0  0  0  0  0
    8.7653    0.7529   -1.7332 H   0  0  0  0  0  0  0  0  0  0  0  0
    6.1386    3.0442   -1.0399 H   0  0  0  0  0  0  0  0  0  0  0  0
   12.0615    0.0000   -1.3098 H   0  0  0  0  0  0  0  0  0  0  0  0
   12.5649    0.8936    0.7479 H   0  0  0  0  0  0  0  0  0  0  0  0
    8.8571    4.4837   -3.7867 H   0  0  0  0  0  0  0  0  0  0  0  0
    6.5981    4.8617   -3.6955 H   0  0  0  0  0  0  0  0  0  0  0  0
   11.4993    7.8577    1.0598 H   0  0  0  0  0  0  0  0  0  0  0  0
    1.5374    8.8469    1.1103 H   0  0  0  0  0  0  0  0  0  0  0  0
    1.8147   10.1786    3.2715 H   0  0  0  0  0  0  0  0  0  0  0  0
    4.9173   11.3900    2.1714 H   0  0  0  0  0  0  0  0  0  0  0  0
    3.1124   11.8864    0.4420 H   0  0  0  0  0  0  0  0  0  0  0  0
    4.0132    8.9956   -1.3915 H   0  0  0  0  0  0  0  0  0  0  0  0
    7.1835    8.4571    1.6483 H   0  0  0  0  0  0  0  0  0  0  0  0
    4.6937    8.3627    4.0951 H   0  0  0  0  0  0  0  0  0  0  0  0
    1.5172    7.1262    5.0460 H   0  0  0  0  0  0  0  0  0  0  0  0
    4.2111    4.1305    4.1108 H   0  0  0  0  0  0  0  0  0  0  0  0
    4.9738    4.1891    7.3657 H   0  0  0  0  0  0  0  0  0  0  0  0
    3.4332    6.2271    7.6074 H   0  0  0  0  0  0  0  0  0  0  0  0
    5.6238    6.4248    6.2956 H   0  0  0  0  0  0  0  0  0  0  0  0
    0.2186    4.2591    3.1658 H   0  0  0  0  0  0  0  0  0  0  0  0
    1.8201    4.9310    1.2863 H   0  0  0  0  0  0  0  0  0  0  0  0
    0.0000    6.5476    2.0697 H   0  0  0  0  0  0  0  0  0  0  0  0
    6.9902   10.0482   -2.3872 H   0  0  0  0  0  0  0  0  0  0  0  0
    7.2382   11.4547   -0.5891 H   0  0  0  0  0  0  0  0  0  0  0  0
  1  2  1  0  0  0  0
  1  6  1  0  0  0  0
  1 12  1  1  0  0  0
  1 34  1  6  0  0  0
  2  3  1  1  0  0  0
  2 11  1  6  0  0  0
  2 35  1  0  0  0  0
  3  4  1  0  0  0  0
  3  9  1  0  0  0  0
  3 36  1  1  0  0  0
  4  5  1  0  0  0  0
  4  7  1  6  0  0  0
  4  8  1  1  0  0  0
  5  6  1  6  0  0  0
  5 37  1  0  0  0  0
  5 38  1  1  0  0  0
  7 39  1  6  0  0  0
  8 40  1  0  0  0  0
  8 41  1  0  0  0  0
  8 42  1  1  0  0  0
  9 10  1  1  0  0  0
  9 43  1  6  0  0  0
 10 44  1  0  0  0  0
 10 45  1  0  0  0  0
 10 46  1  1  0  0  0
 11 47  1  0  0  0  0
 12 15  1  0  0  0  0
 13 14  1  0  0  0  0
 13 18  1  6  0  0  0
 13 22  1  0  0  0  0
 13 48  1  1  0  0  0
 14 15  1  0  0  0  0
 14 21  1  1  0  0  0
 14 49  1  6  0  0  0
 15 16  1  6  0  0  0
 15 50  1  1  0  0  0
 16 17  1  0  0  0  0
 16 19  1  0  0  0  0
 16 51  1  6  0  0  0
 17 18  1  0  0  0  0
 17 52  1  1  0  0  0
 17 53  1  6  0  0  0
 18 20  1  6  0  0  0
 18 54  1  0  0  0  0
 19 55  1  6  0  0  0
 19 56  1  1  0  0  0
 20 57  1  0  0  0  0
 20 58  1  0  0  0  0
 21 59  1  0  0  0  0
 22 26  1  1  0  0  0
 23 24  1  6  0  0  0
 23 28  1  0  0  0  0
 23 60  1  6  0  0  0
 23 61  1  1  0  0  0
 24 25  1  6  0  0  0
 24 62  1  1  0  0  0
 24 63  1  0  0  0  0
 25 26  1  1  0  0  0
 25 33  1  6  0  0  0
 25 64  1  6  0  0  0
 26 27  1  1  0  0  0
 26 65  1  1  0  0  0
 27 28  1  1  0  0  0
 28 29  1  0  0  0  0
 28 66  1  1  0  0  0
 29 30  1  1  0  0  0
 29 32  1  6  0  0  0
 29 67  1  1  0  0  0
 30 31  1  1  0  0  0
 30 68  1  6  0  0  0
 31 69  1  1  0  0  0
 31 70  1  1  0  0  0
 31 71  1  0  0  0  0
 32 72  1  0  0  0  0
 32 73  1  6  0  0  0
 32 74  1  0  0  0  0
 33 75  1  6  0  0  0
 33 76  1  1  0  0  0
M  END
>  <Formula> (300)
C21H43N5O7

>  <Name> (300)
2-{4,6-DIAMINO-3-[3-AMINO-6-(1-METHYLAMINO-ETHYL)-TETRAHYDRO-PYRAN-2-YLOXY]-2-HYDROXY-CYCLOHEXYLOXY)-5-METHYL-4-METHYLAMINO-TETRAHYDRO-PYRAN-3,5-DIOL

>  <CAS-Nr> (300)
1403-66-3

>  <EINECS> (300)
215-765-8

>  <21 CFR> (300)
556.300, 520.1044a, 520.1044b, 520.1044c, 524.1044

>  <LD50-rat-oral> (300)
6600

>  <Compound classification> (300)
AB-AmGl

>  <Microorganism> (300)
Enterococcus faecalis

>  <Publication strain name> (300)
Streptococcus faecalis

>  <Microorganism classification> (300)
Bac+

>  <MIC> (300)
6.25

>  <Method abbreviation> (300)
SDT

>  <Ref-Nr> (300)
7449

>  <Marker> (300)
0

>  <Method> (300)
Serial dilution test; Inoculum size: ---; Medium: ---; pH: ---; Incubation-temperature: -- degrees Centigrade; Incubation-time: ---; Solubility enhancer: ---

>  <Reference> (300)
Manakata, K., Oda, T., Mori, T., Ito, H.: Quintomycin Compounds; US 3,870,698 (1975)

>  <mol_id> (300)
2159

>  <LD50-mouse-oral> (300)
>10000

>  <LD50-mou-ip> (300)
235

>  <MolWeight> (300)
477.60

>  <Nickname> (300)
Gentamycin Antibiotic complex (C1 Structure)

>  <other Names> (300)
Cidomycin, Garamycin, Garasol, Gentacycol, Gentamicin, Gentamicina, Gentamicine, Gentamicinum, Gentamycin, Gentamycin-crme, Gentamycinum, Gentavet, Gentocin, HSDB 3087, Refobacin, Refobacin TM, Uromycine

>  <LD50-mou-iv> (300)
43,5

$$$$
