./000066-25-1.hin
 OpenBabel09251311033D

 19 18  0  0  0  0  0  0  0  0999 V2000
    1.9390   -2.7182    0.0000 C   0  0  0  0  0  0  0  0  0  0  0  0
    1.9198   -1.2114    0.0000 C   0  0  0  0  0  0  0  0  0  0  0  0
    0.5039   -0.6756   -0.0000 C   0  0  0  0  0  0  0  0  0  0  0  0
    0.4888    0.8381    0.0000 C   0  0  0  0  0  0  0  0  0  0  0  0
   -0.9281    1.3658   -0.0000 C   0  0  0  0  0  0  0  0  0  0  0  0
   -0.9753    2.8619    0.0000 C   0  0  0  0  0  0  0  0  0  0  0  0
   -2.0312    3.4959    0.0000 O   0  0  0  0  0  0  0  0  0  0  0  0
    2.9905   -3.0939    0.0000 H   0  0  0  0  0  0  0  0  0  0  0  0
    1.4212   -3.1190    0.9048 H   0  0  0  0  0  0  0  0  0  0  0  0
    1.4212   -3.1190   -0.9048 H   0  0  0  0  0  0  0  0  0  0  0  0
    2.4646   -0.8276    0.9028 H   0  0  0  0  0  0  0  0  0  0  0  0
    2.4646   -0.8276   -0.9028 H   0  0  0  0  0  0  0  0  0  0  0  0
   -0.0423   -1.0569   -0.9030 H   0  0  0  0  0  0  0  0  0  0  0  0
   -0.0423   -1.0569    0.9030 H   0  0  0  0  0  0  0  0  0  0  0  0
    1.0350    1.2199    0.9028 H   0  0  0  0  0  0  0  0  0  0  0  0
    1.0350    1.2199   -0.9028 H   0  0  0  0  0  0  0  0  0  0  0  0
   -1.4802    0.9873   -0.9023 H   0  0  0  0  0  0  0  0  0  0  0  0
   -1.4802    0.9873    0.9023 H   0  0  0  0  0  0  0  0  0  0  0  0
    0.0108    3.3799   -0.0000 H   0  0  0  0  0  0  0  0  0  0  0  0
  1  2  1  0  0  0  0
  1  8  1  0  0  0  0
  1  9  1  0  0  0  0
  1 10  1  0  0  0  0
  2  3  1  0  0  0  0
  2 11  1  0  0  0  0
  2 12  1  0  0  0  0
  3  4  1  0  0  0  0
  3 13  1  0  0  0  0
  3 14  1  0  0  0  0
  4  5  1  0  0  0  0
  4 15  1  0  0  0  0
  4 16  1  0  0  0  0
  5  6  1  0  0  0  0
  5 17  1  0  0  0  0
  5 18  1  0  0  0  0
  6  7  2  0  0  0  0
  6 19  1  0  0  0  0
M  END
