./000067-56-1.hin
 OpenBabel09251311033D

  6  5  0  0  0  0  0  0  0  0999 V2000
   -0.8362   -0.0936    0.5191 C   0  0  0  0  0  0  0  0  0  0  0  0
   -0.7910    1.3161    0.5191 O   0  0  0  0  0  0  0  0  0  0  0  0
    0.2341   -0.4199    0.5191 H   0  0  0  0  0  0  0  0  0  0  0  0
   -1.3535   -0.4770    1.4340 H   0  0  0  0  0  0  0  0  0  0  0  0
   -1.3535   -0.4770   -0.3958 H   0  0  0  0  0  0  0  0  0  0  0  0
   -1.7026    1.6303    0.5191 H   0  0  0  0  0  0  0  0  0  0  0  0
  1  2  1  0  0  0  0
  1  3  1  0  0  0  0
  1  4  1  0  0  0  0
  1  5  1  0  0  0  0
  2  6  1  0  0  0  0
M  END
