./000067-63-0.hin
 OpenBabel09251311033D

 12 11  0  0  0  0  0  0  0  0999 V2000
   -0.3380   -0.4949   -0.5620 C   0  0  0  0  0  0  0  0  0  0  0  0
   -0.3672    1.0225   -0.5738 C   0  0  0  0  0  0  0  0  0  0  0  0
    0.7176   -0.8551   -0.5258 H   0  0  0  0  0  0  0  0  0  0  0  0
   -0.8750   -0.8853    0.3348 H   0  0  0  0  0  0  0  0  0  0  0  0
   -0.8300   -0.8844   -1.4837 H   0  0  0  0  0  0  0  0  0  0  0  0
   -1.7893    1.5527   -0.5577 C   0  0  0  0  0  0  0  0  0  0  0  0
    0.3532    1.4482    0.5791 O   0  0  0  0  0  0  0  0  0  0  0  0
   -1.7897    2.6681   -0.6016 H   0  0  0  0  0  0  0  0  0  0  0  0
   -2.3531    1.1588   -1.4358 H   0  0  0  0  0  0  0  0  0  0  0  0
   -2.3095    1.2350    0.3775 H   0  0  0  0  0  0  0  0  0  0  0  0
    0.2612    2.4064    0.6275 H   0  0  0  0  0  0  0  0  0  0  0  0
    0.1658    1.4058   -1.4917 H   0  0  0  0  0  0  0  0  0  0  0  0
  1  2  1  0  0  0  0
  1  3  1  0  0  0  0
  1  4  1  0  0  0  0
  1  5  1  0  0  0  0
  2  6  1  0  0  0  0
  2  7  1  0  0  0  0
  2 12  1  0  0  0  0
  6  8  1  0  0  0  0
  6  9  1  0  0  0  0
  6 10  1  0  0  0  0
  7 11  1  0  0  0  0
M  END
