./000067-64-1.hin
 OpenBabel09251311033D

 10  9  0  0  0  0  0  0  0  0999 V2000
   -0.4645    2.6161   -0.0000 O   0  0  0  0  0  0  0  0  0  0  0  0
    0.7997    4.6497   -0.0000 C   0  0  0  0  0  0  0  0  0  0  0  0
   -0.4645    3.8514   -0.0000 C   0  0  0  0  0  0  0  0  0  0  0  0
   -1.7287    4.6497    0.0000 C   0  0  0  0  0  0  0  0  0  0  0  0
    1.6937    3.9802    0.0000 H   0  0  0  0  0  0  0  0  0  0  0  0
    0.8344    5.3006   -0.9073 H   0  0  0  0  0  0  0  0  0  0  0  0
    0.8344    5.3006    0.9073 H   0  0  0  0  0  0  0  0  0  0  0  0
   -2.6228    3.9802   -0.0000 H   0  0  0  0  0  0  0  0  0  0  0  0
   -1.7635    5.3006    0.9073 H   0  0  0  0  0  0  0  0  0  0  0  0
   -1.7635    5.3006   -0.9073 H   0  0  0  0  0  0  0  0  0  0  0  0
  1  3  2  0  0  0  0
  2  3  1  0  0  0  0
  2  5  1  0  0  0  0
  2  6  1  0  0  0  0
  2  7  1  0  0  0  0
  3  4  1  0  0  0  0
  4  8  1  0  0  0  0
  4  9  1  0  0  0  0
  4 10  1  0  0  0  0
M  END
