./000071-43-2.hin
 OpenBabel09251311033D

 12 12  0  0  0  0  0  0  0  0999 V2000
   -1.7342    0.0943   -0.0000 C   0  0  0  0  0  0  0  0  0  0  0  0
   -1.7342    1.4893   -0.0000 C   0  0  0  0  0  0  0  0  0  0  0  0
   -0.5261    2.1868   -0.0000 C   0  0  0  0  0  0  0  0  0  0  0  0
    0.6821    1.4893    0.0000 C   0  0  0  0  0  0  0  0  0  0  0  0
    0.6821    0.0943    0.0000 C   0  0  0  0  0  0  0  0  0  0  0  0
   -0.5261   -0.6033    0.0000 C   0  0  0  0  0  0  0  0  0  0  0  0
   -2.6866   -0.4556    0.0000 H   0  0  0  0  0  0  0  0  0  0  0  0
   -2.6866    2.0392    0.0000 H   0  0  0  0  0  0  0  0  0  0  0  0
   -0.5261    3.2865    0.0000 H   0  0  0  0  0  0  0  0  0  0  0  0
    1.6344    2.0392   -0.0000 H   0  0  0  0  0  0  0  0  0  0  0  0
    1.6344   -0.4556   -0.0000 H   0  0  0  0  0  0  0  0  0  0  0  0
   -0.5261   -1.7029   -0.0000 H   0  0  0  0  0  0  0  0  0  0  0  0
  1  2  2  0  0  0  0
  1  6  1  0  0  0  0
  1  7  1  0  0  0  0
  2  3  1  0  0  0  0
  2  8  1  0  0  0  0
  3  4  2  0  0  0  0
  3  9  1  0  0  0  0
  4  5  1  0  0  0  0
  4 10  1  0  0  0  0
  5  6  2  0  0  0  0
  5 11  1  0  0  0  0
  6 12  1  0  0  0  0
M  END
