./000074-82-8.hin
 OpenBabel09251311033D

  5  4  0  0  0  0  0  0  0  0999 V2000
   -0.1020    0.0735    0.0000 C   0  0  0  0  0  0  0  0  0  0  0  0
   -0.1020    1.1851   -0.0000 H   0  0  0  0  0  0  0  0  0  0  0  0
    0.9460   -0.2971   -0.0000 H   0  0  0  0  0  0  0  0  0  0  0  0
   -0.6261   -0.2971    0.9076 H   0  0  0  0  0  0  0  0  0  0  0  0
   -0.6261   -0.2971   -0.9076 H   0  0  0  0  0  0  0  0  0  0  0  0
  1  2  1  0  0  0  0
  1  3  1  0  0  0  0
  1  4  1  0  0  0  0
  1  5  1  0  0  0  0
M  END
