./000074-93-1.hin
 OpenBabel09251311033D

  6  5  0  0  0  0  0  0  0  0999 V2000
    0.5817    0.6736   -0.0000 S   0  0  0  0  0  0  0  0  0  0  0  0
    0.6741    2.4255    0.0000 C   0  0  0  0  0  0  0  0  0  0  0  0
    1.8705    0.3853    0.0000 H   0  0  0  0  0  0  0  0  0  0  0  0
   -0.3805    2.7875   -0.0000 H   0  0  0  0  0  0  0  0  0  0  0  0
    1.1899    2.8168    0.9043 H   0  0  0  0  0  0  0  0  0  0  0  0
    1.1900    2.8168   -0.9043 H   0  0  0  0  0  0  0  0  0  0  0  0
  1  2  1  0  0  0  0
  1  3  1  0  0  0  0
  2  4  1  0  0  0  0
  2  5  1  0  0  0  0
  2  6  1  0  0  0  0
M  END
