./000074-99-7.hin
 OpenBabel09251311033D

  7  6  0  0  0  0  0  0  0  0999 V2000
   -1.5243    0.0579    0.0000 C   0  0  0  0  0  0  0  0  0  0  0  0
   -1.5243    1.4847   -0.0000 C   0  0  0  0  0  0  0  0  0  0  0  0
   -1.5243    2.6814   -0.0000 C   0  0  0  0  0  0  0  0  0  0  0  0
   -0.4745   -0.3354   -0.0000 H   0  0  0  0  0  0  0  0  0  0  0  0
   -2.0491   -0.3354    0.9091 H   0  0  0  0  0  0  0  0  0  0  0  0
   -2.0492   -0.3354   -0.9091 H   0  0  0  0  0  0  0  0  0  0  0  0
   -1.5243    3.7410   -0.0000 H   0  0  0  0  0  0  0  0  0  0  0  0
  1  2  1  0  0  0  0
  1  4  1  0  0  0  0
  1  5  1  0  0  0  0
  1  6  1  0  0  0  0
  2  3  3  0  0  0  0
  3  7  1  0  0  0  0
M  END
