./000075-01-4.hin
 OpenBabel09251311033D

  6  5  0  0  0  0  0  0  0  0999 V2000
   -3.6252    1.4319    0.0000 Cl  0  0  0  0  0  0  0  0  0  0  0  0
   -3.5313    3.1257    0.0000 C   0  0  0  0  0  0  0  0  0  0  0  0
   -2.3831    3.7954    0.0000 C   0  0  0  0  0  0  0  0  0  0  0  0
   -4.5233    3.5965    0.0000 H   0  0  0  0  0  0  0  0  0  0  0  0
   -2.3663    4.8941   -0.0000 H   0  0  0  0  0  0  0  0  0  0  0  0
   -1.3978    3.3112   -0.0000 H   0  0  0  0  0  0  0  0  0  0  0  0
  1  2  1  0  0  0  0
  2  3  2  0  0  0  0
  2  4  1  0  0  0  0
  3  5  1  0  0  0  0
  3  6  1  0  0  0  0
M  END
