./000075-08-1.hin
 OpenBabel09251311033D

  9  8  0  0  0  0  0  0  0  0999 V2000
    0.1369    0.6106    0.3588 S   0  0  0  0  0  0  0  0  0  0  0  0
    0.2446    2.3749    0.2905 C   0  0  0  0  0  0  0  0  0  0  0  0
    1.4162    0.3055    0.2371 H   0  0  0  0  0  0  0  0  0  0  0  0
   -0.8217    2.7162    0.3140 H   0  0  0  0  0  0  0  0  0  0  0  0
    0.7489    2.7609    1.2098 H   0  0  0  0  0  0  0  0  0  0  0  0
    0.9366    2.8919   -0.9347 C   0  0  0  0  0  0  0  0  0  0  0  0
    0.9100    4.0099   -0.9497 H   0  0  0  0  0  0  0  0  0  0  0  0
    2.0065    2.5695   -0.9549 H   0  0  0  0  0  0  0  0  0  0  0  0
    0.4387    2.5168   -1.8622 H   0  0  0  0  0  0  0  0  0  0  0  0
  1  2  1  0  0  0  0
  1  3  1  0  0  0  0
  2  4  1  0  0  0  0
  2  5  1  0  0  0  0
  2  6  1  0  0  0  0
  6  7  1  0  0  0  0
  6  8  1  0  0  0  0
  6  9  1  0  0  0  0
M  END
