./000075-09-2.hin
 OpenBabel09251311033D

  5  4  0  0  0  0  0  0  0  0999 V2000
   -0.4253    0.6754    0.2075 C   0  0  0  0  0  0  0  0  0  0  0  0
   -0.3988    2.4160    0.2533 Cl  0  0  0  0  0  0  0  0  0  0  0  0
    0.6282    0.3165    0.1854 H   0  0  0  0  0  0  0  0  0  0  0  0
   -0.9711    0.3165    1.1088 H   0  0  0  0  0  0  0  0  0  0  0  0
   -1.2370    0.0454   -1.1984 Cl  0  0  0  0  0  0  0  0  0  0  0  0
  1  2  1  0  0  0  0
  1  3  1  0  0  0  0
  1  4  1  0  0  0  0
  1  5  1  0  0  0  0
M  END
