./000075-28-5.hin
 OpenBabel09251311033D

 14 13  0  0  0  0  0  0  0  0999 V2000
   -0.7311   -0.5217    0.0833 C   0  0  0  0  0  0  0  0  0  0  0  0
   -0.7158    0.9921    0.0567 C   0  0  0  0  0  0  0  0  0  0  0  0
   -1.7817   -0.8996    0.0896 H   0  0  0  0  0  0  0  0  0  0  0  0
   -0.2124   -0.9347   -0.8152 H   0  0  0  0  0  0  0  0  0  0  0  0
   -0.2113   -0.8996    0.9962 H   0  0  0  0  0  0  0  0  0  0  0  0
    0.7063    1.5111    0.0833 C   0  0  0  0  0  0  0  0  0  0  0  0
   -1.4498    1.5111   -1.1615 C   0  0  0  0  0  0  0  0  0  0  0  0
    0.7124    2.6275    0.0896 H   0  0  0  0  0  0  0  0  0  0  0  0
    1.2359    1.1470    0.9962 H   0  0  0  0  0  0  0  0  0  0  0  0
    1.2686    1.1597   -0.8152 H   0  0  0  0  0  0  0  0  0  0  0  0
   -1.4583    2.6275   -1.1637 H   0  0  0  0  0  0  0  0  0  0  0  0
   -1.2473    1.3679    0.9773 H   0  0  0  0  0  0  0  0  0  0  0  0
   -0.9528    1.1597   -2.0977 H   0  0  0  0  0  0  0  0  0  0  0  0
   -2.5052    1.1470   -1.1637 H   0  0  0  0  0  0  0  0  0  0  0  0
  1  2  1  0  0  0  0
  1  3  1  0  0  0  0
  1  4  1  0  0  0  0
  1  5  1  0  0  0  0
  2  6  1  0  0  0  0
  2  7  1  0  0  0  0
  2 12  1  0  0  0  0
  6  8  1  0  0  0  0
  6  9  1  0  0  0  0
  6 10  1  0  0  0  0
  7 11  1  0  0  0  0
  7 13  1  0  0  0  0
  7 14  1  0  0  0  0
M  END
