./000076-22-2.hin
 OpenBabel09251311033D

 27 28  0  0  1  0  0  0  0  0999 V2000
   -1.9293   -1.7342   -1.0635 C   0  0  0  0  0  0  0  0  0  0  0  0
   -1.2945   -1.1517    0.1811 C   0  0  0  0  0  0  0  0  0  0  0  0
   -1.9738   -1.7523    1.3896 C   0  0  0  0  0  0  0  0  0  0  0  0
    0.2652   -1.2893    0.2014 C   0  0  1  0  0  0  0  0  0  0  0  0
   -1.2562    0.4189    0.1805 C   0  0  1  0  0  0  0  0  0  0  0  0
   -0.3346    0.6761   -1.0225 C   0  0  0  0  0  0  0  0  0  0  0  0
    0.6758   -0.4631   -1.0337 C   0  0  0  0  0  0  0  0  0  0  0  0
   -2.5656    1.1343    0.1590 C   0  0  0  0  0  0  0  0  0  0  0  0
   -0.3592    0.7186    1.4085 C   0  0  0  0  0  0  0  0  0  0  0  0
    0.6527   -0.4404    1.4280 C   0  0  0  0  0  0  0  0  0  0  0  0
   -0.3874    1.6149   -1.8093 O   0  0  0  0  0  0  0  0  0  0  0  0
   -3.0433   -1.6805   -0.9865 H   0  0  0  0  0  0  0  0  0  0  0  0
   -1.6251   -1.1841   -1.9862 H   0  0  0  0  0  0  0  0  0  0  0  0
   -1.6316   -2.8050   -1.1742 H   0  0  0  0  0  0  0  0  0  0  0  0
   -1.8789   -2.8653    1.3596 H   0  0  0  0  0  0  0  0  0  0  0  0
   -1.5340   -1.3890    2.3479 H   0  0  0  0  0  0  0  0  0  0  0  0
   -3.0597   -1.4863    1.3841 H   0  0  0  0  0  0  0  0  0  0  0  0
    0.6483   -2.3263    0.2114 H   0  0  0  0  0  0  0  0  0  0  0  0
    1.7184   -0.0724   -0.9546 H   0  0  0  0  0  0  0  0  0  0  0  0
    0.5928   -1.0565   -1.9758 H   0  0  0  0  0  0  0  0  0  0  0  0
   -3.1278    0.9465    1.1061 H   0  0  0  0  0  0  0  0  0  0  0  0
   -2.4008    2.2340    0.0460 H   0  0  0  0  0  0  0  0  0  0  0  0
   -3.1857    0.7795   -0.7009 H   0  0  0  0  0  0  0  0  0  0  0  0
   -0.9746    0.7430    2.3390 H   0  0  0  0  0  0  0  0  0  0  0  0
    0.1469    1.7072    1.2997 H   0  0  0  0  0  0  0  0  0  0  0  0
    0.5724   -1.0363    2.3681 H   0  0  0  0  0  0  0  0  0  0  0  0
    1.7019   -0.0682    1.3476 H   0  0  0  0  0  0  0  0  0  0  0  0
  1  2  1  0  0  0  0
  1 12  1  0  0  0  0
  1 13  1  0  0  0  0
  1 14  1  0  0  0  0
  2  3  1  0  0  0  0
  2  4  1  0  0  0  0
  2  5  1  0  0  0  0
  3 15  1  0  0  0  0
  3 16  1  0  0  0  0
  3 17  1  0  0  0  0
  4  7  1  0  0  0  0
  4 10  1  0  0  0  0
  4 18  1  1  0  0  0
  5  6  1  0  0  0  0
  5  8  1  6  0  0  0
  5  9  1  0  0  0  0
  6  7  1  0  0  0  0
  6 11  2  0  0  0  0
  7 19  1  0  0  0  0
  7 20  1  0  0  0  0
  8 21  1  0  0  0  0
  8 22  1  0  0  0  0
  8 23  1  0  0  0  0
  9 10  1  0  0  0  0
  9 24  1  0  0  0  0
  9 25  1  0  0  0  0
 10 26  1  0  0  0  0
 10 27  1  0  0  0  0
M  END
