./000078-79-5.hin
 OpenBabel09251311033D

 13 12  0  0  0  0  0  0  0  0999 V2000
   -3.9058    0.2702   -0.0024 C   0  0  0  0  0  0  0  0  0  0  0  0
   -3.8571    1.6126   -0.0024 C   0  0  0  0  0  0  0  0  0  0  0  0
   -5.0916    2.3866   -0.0024 C   0  0  0  0  0  0  0  0  0  0  0  0
   -5.2067    3.7151   -0.0024 C   0  0  0  0  0  0  0  0  0  0  0  0
   -2.5424    2.3048   -0.0024 C   0  0  0  0  0  0  0  0  0  0  0  0
   -2.9969   -0.3443   -0.0024 H   0  0  0  0  0  0  0  0  0  0  0  0
   -4.8502   -0.2878   -0.0024 H   0  0  0  0  0  0  0  0  0  0  0  0
   -6.0101    1.7680   -0.0024 H   0  0  0  0  0  0  0  0  0  0  0  0
   -6.1916    4.2021   -0.0024 H   0  0  0  0  0  0  0  0  0  0  0  0
   -4.3581    4.4098   -0.0024 H   0  0  0  0  0  0  0  0  0  0  0  0
   -2.6442    3.4156   -0.0024 H   0  0  0  0  0  0  0  0  0  0  0  0
   -1.9543    2.0114    0.9033 H   0  0  0  0  0  0  0  0  0  0  0  0
   -1.9543    2.0114   -0.9081 H   0  0  0  0  0  0  0  0  0  0  0  0
  1  2  2  0  0  0  0
  1  6  1  0  0  0  0
  1  7  1  0  0  0  0
  2  3  1  0  0  0  0
  2  5  1  0  0  0  0
  3  4  2  0  0  0  0
  3  8  1  0  0  0  0
  4  9  1  0  0  0  0
  4 10  1  0  0  0  0
  5 11  1  0  0  0  0
  5 12  1  0  0  0  0
  5 13  1  0  0  0  0
M  END
