./000078-92-2.hin
 OpenBabel09251311033D

 15 14  0  0  1  0  0  0  0  0999 V2000
    0.3756    0.3465    1.0514 O   0  0  0  0  0  0  0  0  0  0  0  0
    0.8978   -0.0342    0.3359 H   0  0  0  0  0  0  0  0  0  0  0  0
    0.4856    1.7611    0.9338 C   0  0  1  0  0  0  0  0  0  0  0  0
   -0.2597    2.3453    2.1208 C   0  0  0  0  0  0  0  0  0  0  0  0
    0.2473    2.0621    3.0734 H   0  0  0  0  0  0  0  0  0  0  0  0
   -0.0105    2.0839   -0.0264 H   0  0  0  0  0  0  0  0  0  0  0  0
   -0.2870    3.4568    2.0350 H   0  0  0  0  0  0  0  0  0  0  0  0
    2.1049    2.3242   -1.2350 H   0  0  0  0  0  0  0  0  0  0  0  0
    2.6413    1.8739   -0.3649 C   0  0  0  0  0  0  0  0  0  0  0  0
    1.9440    2.2110    0.9266 C   0  0  0  0  0  0  0  0  0  0  0  0
    2.6893    0.7678   -0.5160 H   0  0  0  0  0  0  0  0  0  0  0  0
    3.6865    2.2680   -0.3527 H   0  0  0  0  0  0  0  0  0  0  0  0
    2.4777    1.7256    1.7857 H   0  0  0  0  0  0  0  0  0  0  0  0
    1.9752    3.3201    1.0911 H   0  0  0  0  0  0  0  0  0  0  0  0
   -1.3032    1.9503    2.1449 H   0  0  0  0  0  0  0  0  0  0  0  0
  1  2  1  0  0  0  0
  1  3  1  0  0  0  0
  3  4  1  0  0  0  0
  3  6  1  6  0  0  0
  3 10  1  0  0  0  0
  4  5  1  0  0  0  0
  4  7  1  0  0  0  0
  4 15  1  0  0  0  0
  8  9  1  0  0  0  0
  9 10  1  0  0  0  0
  9 11  1  0  0  0  0
  9 12  1  0  0  0  0
 10 13  1  0  0  0  0
 10 14  1  0  0  0  0
M  END
