./000078-94-4.hin
 OpenBabel09251311033D

 11 10  0  0  0  0  0  0  0  0999 V2000
   -0.5195   -0.4931   -0.1671 O   0  0  0  0  0  0  0  0  0  0  0  0
    0.7901    1.4990   -0.1671 C   0  0  0  0  0  0  0  0  0  0  0  0
   -0.4754    0.7441   -0.1671 C   0  0  0  0  0  0  0  0  0  0  0  0
    0.6854    2.5959   -0.1671 H   0  0  0  0  0  0  0  0  0  0  0  0
    1.9853    0.9072   -0.1671 C   0  0  0  0  0  0  0  0  0  0  0  0
   -1.7152    1.5808   -0.1671 C   0  0  0  0  0  0  0  0  0  0  0  0
    2.9239    1.4777   -0.1671 H   0  0  0  0  0  0  0  0  0  0  0  0
    2.0927   -0.1882   -0.1671 H   0  0  0  0  0  0  0  0  0  0  0  0
   -2.6277    0.9369   -0.1671 H   0  0  0  0  0  0  0  0  0  0  0  0
   -1.7293    2.2324    0.7404 H   0  0  0  0  0  0  0  0  0  0  0  0
   -1.7293    2.2324   -1.0747 H   0  0  0  0  0  0  0  0  0  0  0  0
  1  3  2  0  0  0  0
  2  3  1  0  0  0  0
  2  4  1  0  0  0  0
  2  5  2  0  0  0  0
  3  6  1  0  0  0  0
  5  7  1  0  0  0  0
  5  8  1  0  0  0  0
  6  9  1  0  0  0  0
  6 10  1  0  0  0  0
  6 11  1  0  0  0  0
M  END
