./000095-13-6.hin
 OpenBabel09251311033D

 17 18  0  0  0  0  0  0  0  0999 V2000
   -2.2036   -1.2244    0.0000 C   0  0  0  0  0  0  0  0  0  0  0  0
   -1.0038   -1.9315   -0.0000 C   0  0  0  0  0  0  0  0  0  0  0  0
    0.2285   -1.2618   -0.0000 C   0  0  0  0  0  0  0  0  0  0  0  0
    0.2281    0.1198   -0.0000 C   0  0  0  0  0  0  0  0  0  0  0  0
   -2.2147    0.1769    0.0000 C   0  0  0  0  0  0  0  0  0  0  0  0
    0.6634    2.4385   -0.0000 C   0  0  0  0  0  0  0  0  0  0  0  0
    1.3666    1.1006   -0.0000 C   0  0  0  0  0  0  0  0  0  0  0  0
   -1.0027    0.8464    0.0000 C   0  0  0  0  0  0  0  0  0  0  0  0
   -0.6842    2.2785    0.0000 C   0  0  0  0  0  0  0  0  0  0  0  0
   -3.1585   -1.7706    0.0000 H   0  0  0  0  0  0  0  0  0  0  0  0
   -1.0186   -3.0314   -0.0000 H   0  0  0  0  0  0  0  0  0  0  0  0
    1.1687   -1.8304   -0.0000 H   0  0  0  0  0  0  0  0  0  0  0  0
   -3.1658    0.7269    0.0000 H   0  0  0  0  0  0  0  0  0  0  0  0
    1.2254    3.3711   -0.0000 H   0  0  0  0  0  0  0  0  0  0  0  0
    2.0085    0.9832    0.9088 H   0  0  0  0  0  0  0  0  0  0  0  0
    2.0085    0.9832   -0.9088 H   0  0  0  0  0  0  0  0  0  0  0  0
   -1.4506    3.0535    0.0000 H   0  0  0  0  0  0  0  0  0  0  0  0
  1  2  2  0  0  0  0
  1  5  1  0  0  0  0
  1 10  1  0  0  0  0
  2  3  1  0  0  0  0
  2 11  1  0  0  0  0
  3  4  2  0  0  0  0
  3 12  1  0  0  0  0
  4  7  1  0  0  0  0
  4  8  1  0  0  0  0
  5  8  2  0  0  0  0
  5 13  1  0  0  0  0
  6  7  1  0  0  0  0
  6  9  2  0  0  0  0
  6 14  1  0  0  0  0
  7 15  1  0  0  0  0
  7 16  1  0  0  0  0
  8  9  1  0  0  0  0
  9 17  1  0  0  0  0
M  END
