./000095-47-6.hin
 OpenBabel09251311033D

 18 18  0  0  0  0  0  0  0  0999 V2000
   -5.2016   10.2722   44.5421 C   0  0  0  0  0  0  0  0  0  0  0  0
   -6.3652    6.6898   44.5421 C   0  0  0  0  0  0  0  0  0  0  0  0
   -6.3541    8.0810   44.5421 C   0  0  0  0  0  0  0  0  0  0  0  0
   -5.1449    8.7908   44.5421 C   0  0  0  0  0  0  0  0  0  0  0  0
   -3.9311    8.0839   44.5421 C   0  0  0  0  0  0  0  0  0  0  0  0
   -3.9541    6.6824   44.5421 C   0  0  0  0  0  0  0  0  0  0  0  0
   -5.1598    5.9877   44.5421 C   0  0  0  0  0  0  0  0  0  0  0  0
   -7.3206    6.1458   44.5421 H   0  0  0  0  0  0  0  0  0  0  0  0
   -7.3039    8.6373   44.5421 H   0  0  0  0  0  0  0  0  0  0  0  0
   -2.6249    8.7849   44.5421 C   0  0  0  0  0  0  0  0  0  0  0  0
   -3.0045    6.1257   44.5421 H   0  0  0  0  0  0  0  0  0  0  0  0
   -4.1852   10.7342   44.5421 H   0  0  0  0  0  0  0  0  0  0  0  0
   -5.7502   10.6344   43.6364 H   0  0  0  0  0  0  0  0  0  0  0  0
   -5.7503   10.6345   45.4477 H   0  0  0  0  0  0  0  0  0  0  0  0
   -5.1615    4.8884   44.5421 H   0  0  0  0  0  0  0  0  0  0  0  0
   -1.7759    8.0574   44.5421 H   0  0  0  0  0  0  0  0  0  0  0  0
   -2.5281    9.4327   43.6349 H   0  0  0  0  0  0  0  0  0  0  0  0
   -2.5281    9.4327   45.4493 H   0  0  0  0  0  0  0  0  0  0  0  0
  1  4  1  0  0  0  0
  1 12  1  0  0  0  0
  1 13  1  0  0  0  0
  1 14  1  0  0  0  0
  2  3  2  0  0  0  0
  2  7  1  0  0  0  0
  2  8  1  0  0  0  0
  3  4  1  0  0  0  0
  3  9  1  0  0  0  0
  4  5  2  0  0  0  0
  5  6  1  0  0  0  0
  5 10  1  0  0  0  0
  6  7  2  0  0  0  0
  6 11  1  0  0  0  0
  7 15  1  0  0  0  0
 10 16  1  0  0  0  0
 10 17  1  0  0  0  0
 10 18  1  0  0  0  0
M  END
