./000097-96-1.hin
 OpenBabel09251311033D

 19 18  0  0  0  0  0  0  0  0999 V2000
    1.0870   -2.1815    0.5833 C   0  0  0  0  0  0  0  0  0  0  0  0
    1.0293   -0.7040    0.2934 C   0  0  0  0  0  0  0  0  0  0  0  0
   -0.3994   -0.1756    0.2766 C   0  0  0  0  0  0  0  0  0  0  0  0
   -0.3658    1.3222    0.4546 C   0  0  0  0  0  0  0  0  0  0  0  0
   -0.8325    1.8939    1.4390 O   0  0  0  0  0  0  0  0  0  0  0  0
   -1.1060   -0.5195   -1.0265 C   0  0  0  0  0  0  0  0  0  0  0  0
   -2.5674   -0.1533   -0.9872 C   0  0  0  0  0  0  0  0  0  0  0  0
    2.1495   -2.5258    0.6043 H   0  0  0  0  0  0  0  0  0  0  0  0
    0.6232   -2.4084    1.5738 H   0  0  0  0  0  0  0  0  0  0  0  0
    0.5445   -2.7647   -0.1995 H   0  0  0  0  0  0  0  0  0  0  0  0
    1.6131   -0.1543    1.0798 H   0  0  0  0  0  0  0  0  0  0  0  0
    1.5168   -0.4913   -0.6944 H   0  0  0  0  0  0  0  0  0  0  0  0
   -0.9701   -0.6332    1.1336 H   0  0  0  0  0  0  0  0  0  0  0  0
    0.1203    1.8845   -0.3740 H   0  0  0  0  0  0  0  0  0  0  0  0
   -0.6029    0.0137   -1.8764 H   0  0  0  0  0  0  0  0  0  0  0  0
   -0.9994   -1.6203   -1.2163 H   0  0  0  0  0  0  0  0  0  0  0  0
   -3.0484   -0.3777   -1.9696 H   0  0  0  0  0  0  0  0  0  0  0  0
   -3.0990   -0.7317   -0.1931 H   0  0  0  0  0  0  0  0  0  0  0  0
   -2.6948    0.9354   -0.7694 H   0  0  0  0  0  0  0  0  0  0  0  0
  1  2  1  0  0  0  0
  1  8  1  0  0  0  0
  1  9  1  0  0  0  0
  1 10  1  0  0  0  0
  2  3  1  0  0  0  0
  2 11  1  0  0  0  0
  2 12  1  0  0  0  0
  3  4  1  0  0  0  0
  3  6  1  0  0  0  0
  3 13  1  0  0  0  0
  4  5  2  0  0  0  0
  4 14  1  0  0  0  0
  6  7  1  0  0  0  0
  6 15  1  0  0  0  0
  6 16  1  0  0  0  0
  7 17  1  0  0  0  0
  7 18  1  0  0  0  0
  7 19  1  0  0  0  0
M  END
