./000099-87-6.hin
 OpenBabel09251311033D

 24 24  0  0  0  0  0  0  0  0999 V2000
   -3.9335    0.8288   -0.3342 C   0  0  0  0  0  0  0  0  0  0  0  0
   -2.9120    0.1292    0.3184 C   0  0  0  0  0  0  0  0  0  0  0  0
   -2.9379   -1.2619    0.3854 C   0  0  0  0  0  0  0  0  0  0  0  0
   -3.9856   -1.9816   -0.1995 C   0  0  0  0  0  0  0  0  0  0  0  0
   -5.0084   -1.2824   -0.8513 C   0  0  0  0  0  0  0  0  0  0  0  0
   -4.9822    0.1078   -0.9180 C   0  0  0  0  0  0  0  0  0  0  0  0
   -2.0806    0.6800    0.7837 H   0  0  0  0  0  0  0  0  0  0  0  0
   -2.1292   -1.7994    0.9026 H   0  0  0  0  0  0  0  0  0  0  0  0
   -5.7923    0.6458   -1.4333 H   0  0  0  0  0  0  0  0  0  0  0  0
   -5.8388   -1.8369   -1.3130 H   0  0  0  0  0  0  0  0  0  0  0  0
   -3.8971    2.3233   -0.4005 C   0  0  0  0  0  0  0  0  0  0  0  0
   -5.0988    2.9292    0.2998 C   0  0  0  0  0  0  0  0  0  0  0  0
   -5.0358    4.0437    0.2707 H   0  0  0  0  0  0  0  0  0  0  0  0
   -5.1347    2.6005    1.3658 H   0  0  0  0  0  0  0  0  0  0  0  0
   -3.8226    2.8032   -1.8378 C   0  0  0  0  0  0  0  0  0  0  0  0
   -2.9688    2.6833    0.1325 H   0  0  0  0  0  0  0  0  0  0  0  0
   -6.0462    2.6141   -0.2001 H   0  0  0  0  0  0  0  0  0  0  0  0
   -3.7605    3.9177   -1.8654 H   0  0  0  0  0  0  0  0  0  0  0  0
   -2.9206    2.3819   -2.3425 H   0  0  0  0  0  0  0  0  0  0  0  0
   -4.7285    2.4840   -2.4071 H   0  0  0  0  0  0  0  0  0  0  0  0
   -4.0059   -3.4609   -0.1425 C   0  0  0  0  0  0  0  0  0  0  0  0
   -5.0551   -3.8466   -0.1302 H   0  0  0  0  0  0  0  0  0  0  0  0
   -3.4885   -3.8844   -1.0404 H   0  0  0  0  0  0  0  0  0  0  0  0
   -3.4812   -3.8344    0.7712 H   0  0  0  0  0  0  0  0  0  0  0  0
  1  2  2  0  0  0  0
  1  6  1  0  0  0  0
  1 11  1  0  0  0  0
  2  3  1  0  0  0  0
  2  7  1  0  0  0  0
  3  4  2  0  0  0  0
  3  8  1  0  0  0  0
  4  5  1  0  0  0  0
  4 21  1  0  0  0  0
  5  6  2  0  0  0  0
  5 10  1  0  0  0  0
  6  9  1  0  0  0  0
 11 12  1  0  0  0  0
 11 15  1  0  0  0  0
 11 16  1  0  0  0  0
 12 13  1  0  0  0  0
 12 14  1  0  0  0  0
 12 17  1  0  0  0  0
 15 18  1  0  0  0  0
 15 19  1  0  0  0  0
 15 20  1  0  0  0  0
 21 22  1  0  0  0  0
 21 23  1  0  0  0  0
 21 24  1  0  0  0  0
M  END
