./000100-41-4.hin
 OpenBabel09251311033D

 18 18  0  0  0  0  0  0  0  0999 V2000
   -2.5622    3.3953    0.2883 C   0  0  0  0  0  0  0  0  0  0  0  0
   -2.5049    4.7589    0.6002 C   0  0  0  0  0  0  0  0  0  0  0  0
   -1.2918    5.4429    0.5453 C   0  0  0  0  0  0  0  0  0  0  0  0
   -0.1252    4.7715    0.1798 C   0  0  0  0  0  0  0  0  0  0  0  0
   -0.1751    3.4122   -0.1284 C   0  0  0  0  0  0  0  0  0  0  0  0
   -1.3872    2.7262   -0.0742 C   0  0  0  0  0  0  0  0  0  0  0  0
   -3.8592    2.6655    0.3395 C   0  0  0  0  0  0  0  0  0  0  0  0
   -4.5869    2.7181   -0.9831 C   0  0  0  0  0  0  0  0  0  0  0  0
   -3.6770    1.5931    0.6206 H   0  0  0  0  0  0  0  0  0  0  0  0
   -4.5102    3.1111    1.1394 H   0  0  0  0  0  0  0  0  0  0  0  0
   -3.9698    2.2554   -1.7906 H   0  0  0  0  0  0  0  0  0  0  0  0
   -5.5528    2.1625   -0.9112 H   0  0  0  0  0  0  0  0  0  0  0  0
   -4.8051    3.7749   -1.2704 H   0  0  0  0  0  0  0  0  0  0  0  0
   -3.4233    5.2907    0.8895 H   0  0  0  0  0  0  0  0  0  0  0  0
   -1.2559    6.5144    0.7904 H   0  0  0  0  0  0  0  0  0  0  0  0
    0.8312    5.3119    0.1363 H   0  0  0  0  0  0  0  0  0  0  0  0
    0.7431    2.8794   -0.4157 H   0  0  0  0  0  0  0  0  0  0  0  0
   -1.4232    1.6540   -0.3170 H   0  0  0  0  0  0  0  0  0  0  0  0
  1  2  2  0  0  0  0
  1  6  1  0  0  0  0
  1  7  1  0  0  0  0
  2  3  1  0  0  0  0
  2 14  1  0  0  0  0
  3  4  2  0  0  0  0
  3 15  1  0  0  0  0
  4  5  1  0  0  0  0
  4 16  1  0  0  0  0
  5  6  2  0  0  0  0
  5 17  1  0  0  0  0
  6 18  1  0  0  0  0
  7  8  1  0  0  0  0
  7  9  1  0  0  0  0
  7 10  1  0  0  0  0
  8 11  1  0  0  0  0
  8 12  1  0  0  0  0
  8 13  1  0  0  0  0
M  END
