./000100-42-5.hin
 OpenBabel09251311033D

 16 16  0  0  0  0  0  0  0  0999 V2000
   -1.1874    0.9979   -0.0581 C   0  0  0  0  0  0  0  0  0  0  0  0
   -1.2307    2.3909   -0.0581 C   0  0  0  0  0  0  0  0  0  0  0  0
    0.0378    0.3329   -0.0581 C   0  0  0  0  0  0  0  0  0  0  0  0
    1.2236    1.0682   -0.0581 C   0  0  0  0  0  0  0  0  0  0  0  0
    1.1841    2.4597   -0.0581 C   0  0  0  0  0  0  0  0  0  0  0  0
   -0.0456    3.1402   -0.0581 C   0  0  0  0  0  0  0  0  0  0  0  0
   -2.1249    0.4226   -0.0581 H   0  0  0  0  0  0  0  0  0  0  0  0
   -2.2051    2.9016   -0.0581 H   0  0  0  0  0  0  0  0  0  0  0  0
    0.0701   -0.7661   -0.0581 H   0  0  0  0  0  0  0  0  0  0  0  0
    2.1927    0.5478   -0.0581 H   0  0  0  0  0  0  0  0  0  0  0  0
    2.1233    3.0331   -0.0581 H   0  0  0  0  0  0  0  0  0  0  0  0
   -0.0446    4.5948   -0.0581 C   0  0  0  0  0  0  0  0  0  0  0  0
   -1.1240    5.3793   -0.0581 C   0  0  0  0  0  0  0  0  0  0  0  0
    0.9628    5.0518   -0.0581 H   0  0  0  0  0  0  0  0  0  0  0  0
   -1.0386    6.4741   -0.0581 H   0  0  0  0  0  0  0  0  0  0  0  0
   -2.1531    4.9991   -0.0581 H   0  0  0  0  0  0  0  0  0  0  0  0
  1  2  2  0  0  0  0
  1  3  1  0  0  0  0
  1  7  1  0  0  0  0
  2  6  1  0  0  0  0
  2  8  1  0  0  0  0
  3  4  2  0  0  0  0
  3  9  1  0  0  0  0
  4  5  1  0  0  0  0
  4 10  1  0  0  0  0
  5  6  2  0  0  0  0
  5 11  1  0  0  0  0
  6 12  1  0  0  0  0
 12 13  2  0  0  0  0
 12 14  1  0  0  0  0
 13 15  1  0  0  0  0
 13 16  1  0  0  0  0
M  END
