./000100-52-7.hin
 OpenBabel09251311033D

 14 14  0  0  0  0  0  0  0  0999 V2000
   -1.1692    5.8859   -0.0000 O   0  0  0  0  0  0  0  0  0  0  0  0
   -0.1430    5.2022   -0.0000 C   0  0  0  0  0  0  0  0  0  0  0  0
    0.8661    5.6753   -0.0000 H   0  0  0  0  0  0  0  0  0  0  0  0
   -1.3331    1.6235   -0.0000 C   0  0  0  0  0  0  0  0  0  0  0  0
   -1.3462    3.0173   -0.0000 C   0  0  0  0  0  0  0  0  0  0  0  0
   -0.1188    0.9370   -0.0000 C   0  0  0  0  0  0  0  0  0  0  0  0
    1.0850    1.6439   -0.0000 C   0  0  0  0  0  0  0  0  0  0  0  0
    1.0760    3.0370   -0.0000 C   0  0  0  0  0  0  0  0  0  0  0  0
   -0.1411    3.7308   -0.0000 C   0  0  0  0  0  0  0  0  0  0  0  0
   -2.2814    1.0661   -0.0000 H   0  0  0  0  0  0  0  0  0  0  0  0
   -2.2985    3.5725   -0.0000 H   0  0  0  0  0  0  0  0  0  0  0  0
   -0.1088   -0.1634   -0.0000 H   0  0  0  0  0  0  0  0  0  0  0  0
    2.0415    1.1009   -0.0000 H   0  0  0  0  0  0  0  0  0  0  0  0
    2.0260    3.5933   -0.0000 H   0  0  0  0  0  0  0  0  0  0  0  0
  1  2  2  0  0  0  0
  2  3  1  0  0  0  0
  2  9  1  0  0  0  0
  4  5  2  0  0  0  0
  4  6  1  0  0  0  0
  4 10  1  0  0  0  0
  5  9  1  0  0  0  0
  5 11  1  0  0  0  0
  6  7  2  0  0  0  0
  6 12  1  0  0  0  0
  7  8  1  0  0  0  0
  7 13  1  0  0  0  0
  8  9  2  0  0  0  0
  8 14  1  0  0  0  0
M  END
