./000106-42-3.hin
 OpenBabel09251311033D

 18 18  0  0  0  0  0  0  0  0999 V2000
   -2.9311    6.6126   44.5421 C   0  0  0  0  0  0  0  0  0  0  0  0
   -6.6348    7.3523   44.5421 C   0  0  0  0  0  0  0  0  0  0  0  0
   -5.4251    6.6630   44.5421 C   0  0  0  0  0  0  0  0  0  0  0  0
   -4.2101    7.3584   44.5421 C   0  0  0  0  0  0  0  0  0  0  0  0
   -4.2281    8.7578   44.5421 C   0  0  0  0  0  0  0  0  0  0  0  0
   -5.4378    9.4471   44.5421 C   0  0  0  0  0  0  0  0  0  0  0  0
   -6.6528    8.7516   44.5421 C   0  0  0  0  0  0  0  0  0  0  0  0
   -7.5822    6.7929   44.5421 H   0  0  0  0  0  0  0  0  0  0  0  0
   -5.4200    5.5628   44.5421 H   0  0  0  0  0  0  0  0  0  0  0  0
   -3.2808    9.3172   44.5421 H   0  0  0  0  0  0  0  0  0  0  0  0
   -5.4429   10.5473   44.5421 H   0  0  0  0  0  0  0  0  0  0  0  0
   -2.0547    7.3056   44.5421 H   0  0  0  0  0  0  0  0  0  0  0  0
   -2.8639    5.9595   45.4480 H   0  0  0  0  0  0  0  0  0  0  0  0
   -2.8639    5.9595   43.6361 H   0  0  0  0  0  0  0  0  0  0  0  0
   -7.9318    9.4975   44.5421 C   0  0  0  0  0  0  0  0  0  0  0  0
   -8.8082    8.8044   44.5421 H   0  0  0  0  0  0  0  0  0  0  0  0
   -7.9991   10.1506   45.4480 H   0  0  0  0  0  0  0  0  0  0  0  0
   -7.9990   10.1506   43.6361 H   0  0  0  0  0  0  0  0  0  0  0  0
  1  4  1  0  0  0  0
  1 12  1  0  0  0  0
  1 13  1  0  0  0  0
  1 14  1  0  0  0  0
  2  3  2  0  0  0  0
  2  7  1  0  0  0  0
  2  8  1  0  0  0  0
  3  4  1  0  0  0  0
  3  9  1  0  0  0  0
  4  5  2  0  0  0  0
  5  6  1  0  0  0  0
  5 10  1  0  0  0  0
  6  7  2  0  0  0  0
  6 11  1  0  0  0  0
  7 15  1  0  0  0  0
 15 16  1  0  0  0  0
 15 17  1  0  0  0  0
 15 18  1  0  0  0  0
M  END
