./000106-98-9.hin
 OpenBabel09251311033D

 12 11  0  0  0  0  0  0  0  0999 V2000
  -14.3607    2.1334   34.8026 C   0  0  0  0  0  0  0  0  0  0  0  0
  -16.8061    4.3943   36.2390 C   0  0  0  0  0  0  0  0  0  0  0  0
  -14.6590    3.5059   35.3545 C   0  0  0  0  0  0  0  0  0  0  0  0
  -16.1014    3.8392   35.2560 C   0  0  0  0  0  0  0  0  0  0  0  0
  -14.0749    4.2747   34.7771 H   0  0  0  0  0  0  0  0  0  0  0  0
  -14.3131    3.5643   36.4214 H   0  0  0  0  0  0  0  0  0  0  0  0
  -17.8697    4.6421   36.1292 H   0  0  0  0  0  0  0  0  0  0  0  0
  -16.3727    4.6391   37.2175 H   0  0  0  0  0  0  0  0  0  0  0  0
  -13.2675    1.9180   34.8774 H   0  0  0  0  0  0  0  0  0  0  0  0
  -14.9152    1.3501   35.3733 H   0  0  0  0  0  0  0  0  0  0  0  0
  -14.6621    2.0646   33.7295 H   0  0  0  0  0  0  0  0  0  0  0  0
  -16.5675    3.6007   34.2851 H   0  0  0  0  0  0  0  0  0  0  0  0
  1  3  1  0  0  0  0
  1  9  1  0  0  0  0
  1 10  1  0  0  0  0
  1 11  1  0  0  0  0
  2  4  2  0  0  0  0
  2  7  1  0  0  0  0
  2  8  1  0  0  0  0
  3  4  1  0  0  0  0
  3  5  1  0  0  0  0
  3  6  1  0  0  0  0
  4 12  1  0  0  0  0
M  END
