./000106-99-0.hin
 OpenBabel09251311033D

 10  9  0  0  0  0  0  0  0  0999 V2000
   -3.9524    0.2639   -0.0024 C   0  0  0  0  0  0  0  0  0  0  0  0
   -3.9579    1.5987   -0.0024 C   0  0  0  0  0  0  0  0  0  0  0  0
   -5.1722    2.3932   -0.0024 C   0  0  0  0  0  0  0  0  0  0  0  0
   -5.1777    3.7279   -0.0024 C   0  0  0  0  0  0  0  0  0  0  0  0
   -3.0202   -0.3153   -0.0024 H   0  0  0  0  0  0  0  0  0  0  0  0
   -4.8725   -0.3349   -0.0024 H   0  0  0  0  0  0  0  0  0  0  0  0
   -6.1195    1.8258   -0.0024 H   0  0  0  0  0  0  0  0  0  0  0  0
   -6.1099    4.3071   -0.0024 H   0  0  0  0  0  0  0  0  0  0  0  0
   -4.2575    4.3267   -0.0024 H   0  0  0  0  0  0  0  0  0  0  0  0
   -3.0105    2.1661   -0.0024 H   0  0  0  0  0  0  0  0  0  0  0  0
  1  2  2  0  0  0  0
  1  5  1  0  0  0  0
  1  6  1  0  0  0  0
  2  3  1  0  0  0  0
  2 10  1  0  0  0  0
  3  4  2  0  0  0  0
  3  7  1  0  0  0  0
  4  8  1  0  0  0  0
  4  9  1  0  0  0  0
M  END
