./000107-00-6.hin
 OpenBabel09251311033D

 10  9  0  0  0  0  0  0  0  0999 V2000
   -1.3685    0.5948    0.3165 C   0  0  0  0  0  0  0  0  0  0  0  0
   -1.3551    2.0281    0.3398 C   0  0  0  0  0  0  0  0  0  0  0  0
   -1.3378    3.2241    0.3698 C   0  0  0  0  0  0  0  0  0  0  0  0
   -0.3077    0.2159    0.3416 H   0  0  0  0  0  0  0  0  0  0  0  0
   -1.8772    0.2159    1.2478 H   0  0  0  0  0  0  0  0  0  0  0  0
   -1.3223    4.2832    0.3966 H   0  0  0  0  0  0  0  0  0  0  0  0
   -2.0723    0.0406   -0.9024 C   0  0  0  0  0  0  0  0  0  0  0  0
   -2.0551   -1.0755   -0.8726 H   0  0  0  0  0  0  0  0  0  0  0  0
   -3.1354    0.3796   -0.9332 H   0  0  0  0  0  0  0  0  0  0  0  0
   -1.5674    0.3796   -1.8385 H   0  0  0  0  0  0  0  0  0  0  0  0
  1  2  1  0  0  0  0
  1  4  1  0  0  0  0
  1  5  1  0  0  0  0
  1  7  1  0  0  0  0
  2  3  3  0  0  0  0
  3  6  1  0  0  0  0
  7  8  1  0  0  0  0
  7  9  1  0  0  0  0
  7 10  1  0  0  0  0
M  END
