./000107-31-3.hin
 OpenBabel09251311033D

  8  7  0  0  0  0  0  0  0  0999 V2000
   -5.2575    3.1045    4.2820 O   0  0  0  0  0  0  0  0  0  0  0  0
   -5.3328    4.5262    4.2820 C   0  0  0  0  0  0  0  0  0  0  0  0
   -6.4307    4.7417    4.2820 H   0  0  0  0  0  0  0  0  0  0  0  0
   -4.8500    4.9418    5.1996 H   0  0  0  0  0  0  0  0  0  0  0  0
   -3.9885    2.5794    4.2820 C   0  0  0  0  0  0  0  0  0  0  0  0
   -3.9631    1.3532    4.2820 O   0  0  0  0  0  0  0  0  0  0  0  0
   -3.1316    3.2767    4.2820 H   0  0  0  0  0  0  0  0  0  0  0  0
   -4.8500    4.9418    3.3644 H   0  0  0  0  0  0  0  0  0  0  0  0
  1  2  1  0  0  0  0
  1  5  1  0  0  0  0
  2  3  1  0  0  0  0
  2  4  1  0  0  0  0
  2  8  1  0  0  0  0
  5  6  2  0  0  0  0
  5  7  1  0  0  0  0
M  END
