./000107-83-5.hin
 OpenBabel09251311033D

 20 19  0  0  0  0  0  0  0  0999 V2000
    1.3389    0.5177   -0.8964 C   0  0  0  0  0  0  0  0  0  0  0  0
    1.1704    2.0208   -0.8027 C   0  0  0  0  0  0  0  0  0  0  0  0
   -0.2997    2.3827   -0.8357 C   0  0  0  0  0  0  0  0  0  0  0  0
    1.8443    2.5454    0.4571 C   0  0  0  0  0  0  0  0  0  0  0  0
    2.0825    4.0397    0.4057 C   0  0  0  0  0  0  0  0  0  0  0  0
    2.7765    4.5289    1.6510 C   0  0  0  0  0  0  0  0  0  0  0  0
    2.4212    0.2477   -0.9445 H   0  0  0  0  0  0  0  0  0  0  0  0
    0.8888    0.0175   -0.0054 H   0  0  0  0  0  0  0  0  0  0  0  0
    0.8350    0.1277   -1.8133 H   0  0  0  0  0  0  0  0  0  0  0  0
    1.6722    2.4899   -1.6964 H   0  0  0  0  0  0  0  0  0  0  0  0
   -0.4325    3.4907   -0.8032 H   0  0  0  0  0  0  0  0  0  0  0  0
   -0.7714    1.9973   -1.7717 H   0  0  0  0  0  0  0  0  0  0  0  0
   -0.8337    1.9367    0.0378 H   0  0  0  0  0  0  0  0  0  0  0  0
    1.2131    2.2951    1.3499 H   0  0  0  0  0  0  0  0  0  0  0  0
    2.8293    2.0237    0.5911 H   0  0  0  0  0  0  0  0  0  0  0  0
    2.7050    4.2892   -0.4941 H   0  0  0  0  0  0  0  0  0  0  0  0
    1.1031    4.5745    0.2878 H   0  0  0  0  0  0  0  0  0  0  0  0
    2.9419    5.6319    1.5952 H   0  0  0  0  0  0  0  0  0  0  0  0
    2.1615    4.3099    2.5572 H   0  0  0  0  0  0  0  0  0  0  0  0
    3.7681    4.0294    1.7725 H   0  0  0  0  0  0  0  0  0  0  0  0
  1  2  1  0  0  0  0
  1  7  1  0  0  0  0
  1  8  1  0  0  0  0
  1  9  1  0  0  0  0
  2  3  1  0  0  0  0
  2  4  1  0  0  0  0
  2 10  1  0  0  0  0
  3 11  1  0  0  0  0
  3 12  1  0  0  0  0
  3 13  1  0  0  0  0
  4  5  1  0  0  0  0
  4 14  1  0  0  0  0
  4 15  1  0  0  0  0
  5  6  1  0  0  0  0
  5 16  1  0  0  0  0
  5 17  1  0  0  0  0
  6 18  1  0  0  0  0
  6 19  1  0  0  0  0
  6 20  1  0  0  0  0
M  END
