./000108-38-3.hin
 OpenBabel09251311033D

 18 18  0  0  0  0  0  0  0  0999 V2000
   -6.2299    6.5982   44.5421 C   0  0  0  0  0  0  0  0  0  0  0  0
   -6.2303    7.9994   44.5421 C   0  0  0  0  0  0  0  0  0  0  0  0
   -5.0128    8.6846   44.5421 C   0  0  0  0  0  0  0  0  0  0  0  0
   -3.7998    7.9849   44.5421 C   0  0  0  0  0  0  0  0  0  0  0  0
   -3.8135    6.5865   44.5421 C   0  0  0  0  0  0  0  0  0  0  0  0
   -5.0267    5.8983   44.5421 C   0  0  0  0  0  0  0  0  0  0  0  0
   -7.1857    6.0544   44.5421 H   0  0  0  0  0  0  0  0  0  0  0  0
   -7.5176    8.7321   44.5421 C   0  0  0  0  0  0  0  0  0  0  0  0
   -2.5204    8.7314   44.5421 C   0  0  0  0  0  0  0  0  0  0  0  0
   -2.8667    6.0268   44.5421 H   0  0  0  0  0  0  0  0  0  0  0  0
   -5.0324    4.7981   44.5421 H   0  0  0  0  0  0  0  0  0  0  0  0
   -1.6441    8.0380   44.5421 H   0  0  0  0  0  0  0  0  0  0  0  0
   -2.4523    9.3843   43.6362 H   0  0  0  0  0  0  0  0  0  0  0  0
   -2.4523    9.3843   45.4479 H   0  0  0  0  0  0  0  0  0  0  0  0
   -5.0013    9.7848   44.5421 H   0  0  0  0  0  0  0  0  0  0  0  0
   -7.3589    9.8378   44.5421 H   0  0  0  0  0  0  0  0  0  0  0  0
   -8.1166    8.4614   43.6367 H   0  0  0  0  0  0  0  0  0  0  0  0
   -8.1166    8.4614   45.4475 H   0  0  0  0  0  0  0  0  0  0  0  0
  1  2  2  0  0  0  0
  1  6  1  0  0  0  0
  1  7  1  0  0  0  0
  2  3  1  0  0  0  0
  2  8  1  0  0  0  0
  3  4  2  0  0  0  0
  3 15  1  0  0  0  0
  4  5  1  0  0  0  0
  4  9  1  0  0  0  0
  5  6  2  0  0  0  0
  5 10  1  0  0  0  0
  6 11  1  0  0  0  0
  8 16  1  0  0  0  0
  8 17  1  0  0  0  0
  8 18  1  0  0  0  0
  9 12  1  0  0  0  0
  9 13  1  0  0  0  0
  9 14  1  0  0  0  0
M  END
