./000108-67-8.hin
 OpenBabel09251311033D

 21 21  0  0  0  0  0  0  0  0999 V2000
   -3.2513   -0.4568    0.0000 C   0  0  0  0  0  0  0  0  0  0  0  0
   -3.2500    0.9436    0.0000 C   0  0  0  0  0  0  0  0  0  0  0  0
   -2.0343    1.6307    0.0000 C   0  0  0  0  0  0  0  0  0  0  0  0
   -0.8221    0.9293    0.0000 C   0  0  0  0  0  0  0  0  0  0  0  0
   -0.8349   -0.4669    0.0000 C   0  0  0  0  0  0  0  0  0  0  0  0
   -2.0484   -1.1661    0.0000 C   0  0  0  0  0  0  0  0  0  0  0  0
   -2.0431   -2.6474   -0.0000 C   0  0  0  0  0  0  0  0  0  0  0  0
    0.4581    1.6746   -0.0000 C   0  0  0  0  0  0  0  0  0  0  0  0
   -4.5354    1.6797   -0.0000 C   0  0  0  0  0  0  0  0  0  0  0  0
   -4.2093   -0.9979    0.0000 H   0  0  0  0  0  0  0  0  0  0  0  0
   -2.0238    2.7309    0.0000 H   0  0  0  0  0  0  0  0  0  0  0  0
    0.1127   -1.0262    0.0000 H   0  0  0  0  0  0  0  0  0  0  0  0
   -3.0823   -3.0579    0.0000 H   0  0  0  0  0  0  0  0  0  0  0  0
   -1.5124   -3.0334   -0.9061 H   0  0  0  0  0  0  0  0  0  0  0  0
   -1.5124   -3.0334    0.9061 H   0  0  0  0  0  0  0  0  0  0  0  0
    1.3332    0.9798    0.0000 H   0  0  0  0  0  0  0  0  0  0  0  0
    0.5270    2.3271   -0.9061 H   0  0  0  0  0  0  0  0  0  0  0  0
    0.5270    2.3271    0.9061 H   0  0  0  0  0  0  0  0  0  0  0  0
   -4.3713    2.7849    0.0000 H   0  0  0  0  0  0  0  0  0  0  0  0
   -5.1350    1.4131   -0.9061 H   0  0  0  0  0  0  0  0  0  0  0  0
   -5.1350    1.4131    0.9061 H   0  0  0  0  0  0  0  0  0  0  0  0
  1  2  2  0  0  0  0
  1  6  1  0  0  0  0
  1 10  1  0  0  0  0
  2  3  1  0  0  0  0
  2  9  1  0  0  0  0
  3  4  2  0  0  0  0
  3 11  1  0  0  0  0
  4  5  1  0  0  0  0
  4  8  1  0  0  0  0
  5  6  2  0  0  0  0
  5 12  1  0  0  0  0
  6  7  1  0  0  0  0
  7 13  1  0  0  0  0
  7 14  1  0  0  0  0
  7 15  1  0  0  0  0
  8 16  1  0  0  0  0
  8 17  1  0  0  0  0
  8 18  1  0  0  0  0
  9 19  1  0  0  0  0
  9 20  1  0  0  0  0
  9 21  1  0  0  0  0
M  END
