./000108-88-3.hin
 OpenBabel09251311033D

 15 15  0  0  0  0  0  0  0  0999 V2000
   -4.0060   -0.5250   -0.0000 C   0  0  0  0  0  0  0  0  0  0  0  0
   -2.7963   -1.2180   -0.0000 C   0  0  0  0  0  0  0  0  0  0  0  0
   -1.5892   -0.5202   -0.0000 C   0  0  0  0  0  0  0  0  0  0  0  0
   -1.5945    0.8750   -0.0000 C   0  0  0  0  0  0  0  0  0  0  0  0
   -2.8020    1.5696   -0.0000 C   0  0  0  0  0  0  0  0  0  0  0  0
   -4.0180    0.8742    0.0000 C   0  0  0  0  0  0  0  0  0  0  0  0
   -5.2975    1.6200    0.0000 C   0  0  0  0  0  0  0  0  0  0  0  0
   -4.9563   -1.0796   -0.0000 H   0  0  0  0  0  0  0  0  0  0  0  0
   -2.7966   -2.3176   -0.0000 H   0  0  0  0  0  0  0  0  0  0  0  0
   -0.6357   -1.0674   -0.0000 H   0  0  0  0  0  0  0  0  0  0  0  0
   -0.6443    1.4283   -0.0000 H   0  0  0  0  0  0  0  0  0  0  0  0
   -2.8057    2.6697   -0.0000 H   0  0  0  0  0  0  0  0  0  0  0  0
   -6.1728    0.9251   -0.0000 H   0  0  0  0  0  0  0  0  0  0  0  0
   -5.3662    2.2725    0.9063 H   0  0  0  0  0  0  0  0  0  0  0  0
   -5.3662    2.2725   -0.9063 H   0  0  0  0  0  0  0  0  0  0  0  0
  1  2  2  0  0  0  0
  1  6  1  0  0  0  0
  1  8  1  0  0  0  0
  2  3  1  0  0  0  0
  2  9  1  0  0  0  0
  3  4  2  0  0  0  0
  3 10  1  0  0  0  0
  4  5  1  0  0  0  0
  4 11  1  0  0  0  0
  5  6  2  0  0  0  0
  5 12  1  0  0  0  0
  6  7  1  0  0  0  0
  7 13  1  0  0  0  0
  7 14  1  0  0  0  0
  7 15  1  0  0  0  0
M  END
