./000109-67-1.hin
 OpenBabel09251311033D

 15 14  0  0  0  0  0  0  0  0999 V2000
   -3.0462   -1.2895   -0.0382 C   0  0  0  0  0  0  0  0  0  0  0  0
   -3.1013    0.0393    0.0095 C   0  0  0  0  0  0  0  0  0  0  0  0
   -4.3643    0.8170    0.0150 C   0  0  0  0  0  0  0  0  0  0  0  0
   -4.3001    1.9949   -0.9379 C   0  0  0  0  0  0  0  0  0  0  0  0
   -5.5804    2.7892   -0.9160 C   0  0  0  0  0  0  0  0  0  0  0  0
   -2.0949   -1.8369   -0.0250 H   0  0  0  0  0  0  0  0  0  0  0  0
   -3.9425   -1.9211   -0.0933 H   0  0  0  0  0  0  0  0  0  0  0  0
   -2.1814    0.6460    0.0599 H   0  0  0  0  0  0  0  0  0  0  0  0
   -5.2347    0.1625   -0.2586 H   0  0  0  0  0  0  0  0  0  0  0  0
   -4.5508    1.1939    1.0582 H   0  0  0  0  0  0  0  0  0  0  0  0
   -3.4397    2.6578   -0.6563 H   0  0  0  0  0  0  0  0  0  0  0  0
   -4.1041    1.6227   -1.9779 H   0  0  0  0  0  0  0  0  0  0  0  0
   -5.5133    3.6519   -1.6218 H   0  0  0  0  0  0  0  0  0  0  0  0
   -6.4457    2.1516   -1.2196 H   0  0  0  0  0  0  0  0  0  0  0  0
   -5.7812    3.1863    0.1085 H   0  0  0  0  0  0  0  0  0  0  0  0
  1  2  2  0  0  0  0
  1  6  1  0  0  0  0
  1  7  1  0  0  0  0
  2  3  1  0  0  0  0
  2  8  1  0  0  0  0
  3  4  1  0  0  0  0
  3  9  1  0  0  0  0
  3 10  1  0  0  0  0
  4  5  1  0  0  0  0
  4 11  1  0  0  0  0
  4 12  1  0  0  0  0
  5 13  1  0  0  0  0
  5 14  1  0  0  0  0
  5 15  1  0  0  0  0
M  END
