./000109-99-9.hin
 OpenBabel09251311033D

 13 13  0  0  0  0  0  0  0  0999 V2000
   -0.4079  -16.0405   25.8836 C   0  0  0  0  0  0  0  0  0  0  0  0
    1.0595  -16.4548   25.9060 C   0  0  0  0  0  0  0  0  0  0  0  0
    1.0596  -14.1037   25.9003 C   0  0  0  0  0  0  0  0  0  0  0  0
   -0.4079  -14.5179   25.8800 C   0  0  0  0  0  0  0  0  0  0  0  0
    1.8743  -15.2793   25.9152 O   0  0  0  0  0  0  0  0  0  0  0  0
    1.3211  -13.5165   26.8178 H   0  0  0  0  0  0  0  0  0  0  0  0
    1.3477  -13.5212   24.9877 H   0  0  0  0  0  0  0  0  0  0  0  0
   -0.9449  -16.4397   26.7788 H   0  0  0  0  0  0  0  0  0  0  0  0
   -0.9187  -16.4440   24.9752 H   0  0  0  0  0  0  0  0  0  0  0  0
    1.3475  -17.0418   24.9962 H   0  0  0  0  0  0  0  0  0  0  0  0
    1.3209  -17.0376   26.8263 H   0  0  0  0  0  0  0  0  0  0  0  0
   -0.9186  -14.1188   24.9696 H   0  0  0  0  0  0  0  0  0  0  0  0
   -0.9448  -14.1144   26.7732 H   0  0  0  0  0  0  0  0  0  0  0  0
  1  2  1  0  0  0  0
  1  4  1  0  0  0  0
  1  8  1  0  0  0  0
  1  9  1  0  0  0  0
  2  5  1  0  0  0  0
  2 10  1  0  0  0  0
  2 11  1  0  0  0  0
  3  4  1  0  0  0  0
  3  5  1  0  0  0  0
  3  6  1  0  0  0  0
  3  7  1  0  0  0  0
  4 12  1  0  0  0  0
  4 13  1  0  0  0  0
M  END
