./000110-83-8.hin
 OpenBabel09251311033D

 16 16  0  0  0  0  0  0  0  0999 V2000
   -1.4541   -0.2878    0.6267 C   0  0  0  0  0  0  0  0  0  0  0  0
    0.0433    1.7191    0.6303 C   0  0  0  0  0  0  0  0  0  0  0  0
    0.8129    1.0344   -0.4371 C   0  0  0  0  0  0  0  0  0  0  0  0
   -1.3869    1.2220    0.7241 C   0  0  0  0  0  0  0  0  0  0  0  0
    0.4111   -0.0997   -1.0192 C   0  0  0  0  0  0  0  0  0  0  0  0
   -0.8598   -0.7846   -0.6777 C   0  0  0  0  0  0  0  0  0  0  0  0
   -2.5202   -0.6245    0.7045 H   0  0  0  0  0  0  0  0  0  0  0  0
   -0.8947   -0.7396    1.4875 H   0  0  0  0  0  0  0  0  0  0  0  0
    0.0412    2.8261    0.4427 H   0  0  0  0  0  0  0  0  0  0  0  0
    0.5662    1.5512    1.6117 H   0  0  0  0  0  0  0  0  0  0  0  0
    1.7621    1.5161   -0.7197 H   0  0  0  0  0  0  0  0  0  0  0  0
   -1.9939    1.6739   -0.1039 H   0  0  0  0  0  0  0  0  0  0  0  0
   -1.8374    1.5586    1.6936 H   0  0  0  0  0  0  0  0  0  0  0  0
    1.0116   -0.5813   -1.8068 H   0  0  0  0  0  0  0  0  0  0  0  0
   -0.6849   -1.8916   -0.6094 H   0  0  0  0  0  0  0  0  0  0  0  0
   -1.5923   -0.6166   -1.5143 H   0  0  0  0  0  0  0  0  0  0  0  0
  1  4  1  0  0  0  0
  1  6  1  0  0  0  0
  1  7  1  0  0  0  0
  1  8  1  0  0  0  0
  2  3  1  0  0  0  0
  2  4  1  0  0  0  0
  2  9  1  0  0  0  0
  2 10  1  0  0  0  0
  3  5  2  0  0  0  0
  3 11  1  0  0  0  0
  4 12  1  0  0  0  0
  4 13  1  0  0  0  0
  5  6  1  0  0  0  0
  5 14  1  0  0  0  0
  6 15  1  0  0  0  0
  6 16  1  0  0  0  0
M  END
