./000111-65-9.hin
 OpenBabel09251311033D

 26 25  0  0  0  0  0  0  0  0999 V2000
    1.2411   -2.8797    0.0619 C   0  0  0  0  0  0  0  0  0  0  0  0
    1.2166   -1.3731    0.0619 C   0  0  0  0  0  0  0  0  0  0  0  0
   -0.2005   -0.8402    0.0619 C   0  0  0  0  0  0  0  0  0  0  0  0
   -0.2203    0.6732    0.0619 C   0  0  0  0  0  0  0  0  0  0  0  0
   -1.6376    1.2047    0.0619 C   0  0  0  0  0  0  0  0  0  0  0  0
   -1.6573    2.7181    0.0619 C   0  0  0  0  0  0  0  0  0  0  0  0
   -3.0744    3.2510    0.0619 C   0  0  0  0  0  0  0  0  0  0  0  0
   -3.0989    4.7576    0.0619 C   0  0  0  0  0  0  0  0  0  0  0  0
    2.2942   -3.2511    0.0619 H   0  0  0  0  0  0  0  0  0  0  0  0
    0.7250   -3.2826    0.9668 H   0  0  0  0  0  0  0  0  0  0  0  0
    1.7606   -0.9873    0.9644 H   0  0  0  0  0  0  0  0  0  0  0  0
    1.7606   -0.9873   -0.8406 H   0  0  0  0  0  0  0  0  0  0  0  0
   -0.7456   -1.2237   -0.8407 H   0  0  0  0  0  0  0  0  0  0  0  0
   -0.7456   -1.2237    0.9644 H   0  0  0  0  0  0  0  0  0  0  0  0
    0.3250    1.0565    0.9644 H   0  0  0  0  0  0  0  0  0  0  0  0
    0.3250    1.0565   -0.8407 H   0  0  0  0  0  0  0  0  0  0  0  0
   -2.1829    0.8214   -0.8407 H   0  0  0  0  0  0  0  0  0  0  0  0
   -2.1829    0.8214    0.9644 H   0  0  0  0  0  0  0  0  0  0  0  0
   -1.1122    3.1016    0.9644 H   0  0  0  0  0  0  0  0  0  0  0  0
   -1.1122    3.1016   -0.8407 H   0  0  0  0  0  0  0  0  0  0  0  0
   -3.6184    2.8652   -0.8406 H   0  0  0  0  0  0  0  0  0  0  0  0
   -4.1521    5.1290    0.0619 H   0  0  0  0  0  0  0  0  0  0  0  0
   -2.5829    5.1605    0.9668 H   0  0  0  0  0  0  0  0  0  0  0  0
    0.7250   -3.2826   -0.8430 H   0  0  0  0  0  0  0  0  0  0  0  0
   -2.5828    5.1605   -0.8430 H   0  0  0  0  0  0  0  0  0  0  0  0
   -3.6184    2.8652    0.9643 H   0  0  0  0  0  0  0  0  0  0  0  0
  1  2  1  0  0  0  0
  1  9  1  0  0  0  0
  1 10  1  0  0  0  0
  1 24  1  0  0  0  0
  2  3  1  0  0  0  0
  2 11  1  0  0  0  0
  2 12  1  0  0  0  0
  3  4  1  0  0  0  0
  3 13  1  0  0  0  0
  3 14  1  0  0  0  0
  4  5  1  0  0  0  0
  4 15  1  0  0  0  0
  4 16  1  0  0  0  0
  5  6  1  0  0  0  0
  5 17  1  0  0  0  0
  5 18  1  0  0  0  0
  6  7  1  0  0  0  0
  6 19  1  0  0  0  0
  6 20  1  0  0  0  0
  7  8  1  0  0  0  0
  7 21  1  0  0  0  0
  7 26  1  0  0  0  0
  8 22  1  0  0  0  0
  8 23  1  0  0  0  0
  8 25  1  0  0  0  0
M  END
