./000111-71-7.hin
 OpenBabel09251311033D

 22 21  0  0  0  0  0  0  0  0999 V2000
    2.4504   -4.0808    0.0000 C   0  0  0  0  0  0  0  0  0  0  0  0
    2.4212   -2.5742    0.0000 C   0  0  0  0  0  0  0  0  0  0  0  0
    1.0022   -2.0463   -0.0000 C   0  0  0  0  0  0  0  0  0  0  0  0
    0.9792   -0.5329    0.0000 C   0  0  0  0  0  0  0  0  0  0  0  0
   -0.4399   -0.0059   -0.0000 C   0  0  0  0  0  0  0  0  0  0  0  0
   -0.4587    1.5060    0.0000 C   0  0  0  0  0  0  0  0  0  0  0  0
   -1.8528    2.0522   -0.0000 C   0  0  0  0  0  0  0  0  0  0  0  0
   -2.0968    3.2594   -0.0001 O   0  0  0  0  0  0  0  0  0  0  0  0
    3.5050   -4.4482    0.0000 H   0  0  0  0  0  0  0  0  0  0  0  0
    1.9360   -4.4855    0.9050 H   0  0  0  0  0  0  0  0  0  0  0  0
    1.9360   -4.4855   -0.9050 H   0  0  0  0  0  0  0  0  0  0  0  0
    2.9638   -2.1866    0.9026 H   0  0  0  0  0  0  0  0  0  0  0  0
    2.9638   -2.1866   -0.9026 H   0  0  0  0  0  0  0  0  0  0  0  0
    0.4584   -2.4314   -0.9027 H   0  0  0  0  0  0  0  0  0  0  0  0
    0.4584   -2.4314    0.9027 H   0  0  0  0  0  0  0  0  0  0  0  0
    1.5232   -0.1482    0.9028 H   0  0  0  0  0  0  0  0  0  0  0  0
    1.5232   -0.1482   -0.9028 H   0  0  0  0  0  0  0  0  0  0  0  0
   -0.9836   -0.3910   -0.9030 H   0  0  0  0  0  0  0  0  0  0  0  0
   -0.9836   -0.3910    0.9030 H   0  0  0  0  0  0  0  0  0  0  0  0
    0.0835    1.8988    0.9023 H   0  0  0  0  0  0  0  0  0  0  0  0
    0.0835    1.8988   -0.9022 H   0  0  0  0  0  0  0  0  0  0  0  0
   -2.6710    1.2963    0.0001 H   0  0  0  0  0  0  0  0  0  0  0  0
  1  2  1  0  0  0  0
  1  9  1  0  0  0  0
  1 10  1  0  0  0  0
  1 11  1  0  0  0  0
  2  3  1  0  0  0  0
  2 12  1  0  0  0  0
  2 13  1  0  0  0  0
  3  4  1  0  0  0  0
  3 14  1  0  0  0  0
  3 15  1  0  0  0  0
  4  5  1  0  0  0  0
  4 16  1  0  0  0  0
  4 17  1  0  0  0  0
  5  6  1  0  0  0  0
  5 18  1  0  0  0  0
  5 19  1  0  0  0  0
  6  7  1  0  0  0  0
  6 20  1  0  0  0  0
  6 21  1  0  0  0  0
  7  8  2  0  0  0  0
  7 22  1  0  0  0  0
M  END
