./000111-84-2.hin
 OpenBabel09251311033D

 29 28  0  0  0  0  0  0  0  0999 V2000
    2.8011   -3.1374    0.5788 C   0  0  0  0  0  0  0  0  0  0  0  0
    2.8348   -1.6436    0.3372 C   0  0  0  0  0  0  0  0  0  0  0  0
    1.4854   -1.0126    0.6057 C   0  0  0  0  0  0  0  0  0  0  0  0
    1.5192    0.4813    0.3640 C   0  0  0  0  0  0  0  0  0  0  0  0
    0.1700    1.1124    0.6327 C   0  0  0  0  0  0  0  0  0  0  0  0
    0.2023    2.6066    0.3913 C   0  0  0  0  0  0  0  0  0  0  0  0
   -1.1390    3.2392    0.6577 C   0  0  0  0  0  0  0  0  0  0  0  0
    2.4957   -3.3403    1.6391 H   0  0  0  0  0  0  0  0  0  0  0  0
    2.0276   -3.6084   -0.0835 H   0  0  0  0  0  0  0  0  0  0  0  0
    3.6086   -1.1729    0.9994 H   0  0  0  0  0  0  0  0  0  0  0  0
    3.1404   -1.4410   -0.7232 H   0  0  0  0  0  0  0  0  0  0  0  0
    0.7117   -1.4833   -0.0565 H   0  0  0  0  0  0  0  0  0  0  0  0
    1.1799   -1.2152    1.6661 H   0  0  0  0  0  0  0  0  0  0  0  0
    2.2931    0.9519    1.0261 H   0  0  0  0  0  0  0  0  0  0  0  0
    1.8247    0.6838   -0.6964 H   0  0  0  0  0  0  0  0  0  0  0  0
   -0.6041    0.6420   -0.0293 H   0  0  0  0  0  0  0  0  0  0  0  0
   -0.1356    0.9101    1.6931 H   0  0  0  0  0  0  0  0  0  0  0  0
    0.9781    3.0750    1.0531 H   0  0  0  0  0  0  0  0  0  0  0  0
    0.5096    2.8069   -0.6693 H   0  0  0  0  0  0  0  0  0  0  0  0
   -1.0929    4.3397    0.4738 H   0  0  0  0  0  0  0  0  0  0  0  0
   -1.9207    2.8025   -0.0100 H   0  0  0  0  0  0  0  0  0  0  0  0
   -1.4509    3.0714    1.7170 H   0  0  0  0  0  0  0  0  0  0  0  0
    4.1503   -3.7698    0.3106 C   0  0  0  0  0  0  0  0  0  0  0  0
    4.9228   -3.2965    0.9728 H   0  0  0  0  0  0  0  0  0  0  0  0
    4.1214   -5.2572    0.5499 C   0  0  0  0  0  0  0  0  0  0  0  0
    4.4548   -3.5645   -0.7498 H   0  0  0  0  0  0  0  0  0  0  0  0
    5.1249   -5.7030    0.3466 H   0  0  0  0  0  0  0  0  0  0  0  0
    3.8438   -5.4811    1.6084 H   0  0  0  0  0  0  0  0  0  0  0  0
    3.3746   -5.7499   -0.1188 H   0  0  0  0  0  0  0  0  0  0  0  0
  1  2  1  0  0  0  0
  1  8  1  0  0  0  0
  1  9  1  0  0  0  0
  1 23  1  0  0  0  0
  2  3  1  0  0  0  0
  2 10  1  0  0  0  0
  2 11  1  0  0  0  0
  3  4  1  0  0  0  0
  3 12  1  0  0  0  0
  3 13  1  0  0  0  0
  4  5  1  0  0  0  0
  4 14  1  0  0  0  0
  4 15  1  0  0  0  0
  5  6  1  0  0  0  0
  5 16  1  0  0  0  0
  5 17  1  0  0  0  0
  6  7  1  0  0  0  0
  6 18  1  0  0  0  0
  6 19  1  0  0  0  0
  7 20  1  0  0  0  0
  7 21  1  0  0  0  0
  7 22  1  0  0  0  0
 23 24  1  0  0  0  0
 23 25  1  0  0  0  0
 23 26  1  0  0  0  0
 25 27  1  0  0  0  0
 25 28  1  0  0  0  0
 25 29  1  0  0  0  0
M  END
