./000115-11-7.hin
 OpenBabel09251311033D

 12 11  0  0  0  0  0  0  0  0999 V2000
   -3.2656   -0.2181   -0.2749 C   0  0  0  0  0  0  0  0  0  0  0  0
   -3.2663    1.0964   -0.0359 C   0  0  0  0  0  0  0  0  0  0  0  0
   -4.5176    1.8676    0.1658 C   0  0  0  0  0  0  0  0  0  0  0  0
   -2.0160    1.8907    0.0470 C   0  0  0  0  0  0  0  0  0  0  0  0
   -2.3400   -0.7883   -0.4240 H   0  0  0  0  0  0  0  0  0  0  0  0
   -4.1904   -0.8053   -0.3361 H   0  0  0  0  0  0  0  0  0  0  0  0
   -4.6005    2.6736   -0.6055 H   0  0  0  0  0  0  0  0  0  0  0  0
   -5.4202    1.2133    0.0914 H   0  0  0  0  0  0  0  0  0  0  0  0
   -4.5129    2.3503    1.1749 H   0  0  0  0  0  0  0  0  0  0  0  0
   -2.0214    2.6975   -0.7279 H   0  0  0  0  0  0  0  0  0  0  0  0
   -1.9339    2.3739    1.0525 H   0  0  0  0  0  0  0  0  0  0  0  0
   -1.1126    1.2530   -0.1133 H   0  0  0  0  0  0  0  0  0  0  0  0
  1  2  2  0  0  0  0
  1  5  1  0  0  0  0
  1  6  1  0  0  0  0
  2  3  1  0  0  0  0
  2  4  1  0  0  0  0
  3  7  1  0  0  0  0
  3  8  1  0  0  0  0
  3  9  1  0  0  0  0
  4 10  1  0  0  0  0
  4 11  1  0  0  0  0
  4 12  1  0  0  0  0
M  END
