./000121-46-0.hin
 OpenBabel09251311033D

 15 16  0  0  1  0  0  0  0  0999 V2000
   -1.3174    0.0618   -0.3034 C   0  0  2  0  0  0  0  0  0  0  0  0
   -0.0400    2.0117   -0.3172 C   0  0  0  0  0  0  0  0  0  0  0  0
    0.8523    0.7672   -0.3021 C   0  0  1  0  0  0  0  0  0  0  0  0
   -1.3276    1.5931   -0.3180 C   0  0  0  0  0  0  0  0  0  0  0  0
    0.5788    0.1058    1.0519 C   0  0  0  0  0  0  0  0  0  0  0  0
   -0.7088   -0.3128    1.0511 C   0  0  0  0  0  0  0  0  0  0  0  0
   -2.2490   -0.4480   -0.5919 H   0  0  0  0  0  0  0  0  0  0  0  0
    0.3638    3.0199   -0.3183 H   0  0  0  0  0  0  0  0  0  0  0  0
   -0.0420   -0.1700   -1.2025 C   0  0  0  0  0  0  0  0  0  0  0  0
    1.9059    0.9028   -0.5894 H   0  0  0  0  0  0  0  0  0  0  0  0
    1.3342    0.0311    1.8286 H   0  0  0  0  0  0  0  0  0  0  0  0
   -1.2766   -0.8177    1.8270 H   0  0  0  0  0  0  0  0  0  0  0  0
    0.3009   -1.2247   -1.2107 H   0  0  0  0  0  0  0  0  0  0  0  0
   -2.2470    2.1711   -0.3199 H   0  0  0  0  0  0  0  0  0  0  0  0
   -0.1637    0.2063   -2.2386 H   0  0  0  0  0  0  0  0  0  0  0  0
  1  4  1  0  0  0  0
  1  6  1  0  0  0  0
  1  7  1  6  0  0  0
  1  9  1  0  0  0  0
  2  3  1  0  0  0  0
  2  4  2  0  0  0  0
  2  8  1  0  0  0  0
  3  5  1  0  0  0  0
  3  9  1  0  0  0  0
  3 10  1  6  0  0  0
  4 14  1  0  0  0  0
  5  6  2  0  0  0  0
  5 11  1  0  0  0  0
  6 12  1  0  0  0  0
  9 13  1  0  0  0  0
  9 15  1  0  0  0  0
M  END
