./000121-69-7.hin
 OpenBabel09251311033D

 20 20  0  0  0  0  0  0  0  0999 V2000
   -0.8080    0.6121    0.0922 C   0  0  0  0  0  0  0  0  0  0  0  0
   -0.8133    2.0029   -0.0001 C   0  0  0  0  0  0  0  0  0  0  0  0
    0.3944    2.6925   -0.0924 C   0  0  0  0  0  0  0  0  0  0  0  0
    1.6040    2.0030   -0.0929 C   0  0  0  0  0  0  0  0  0  0  0  0
    1.6228    0.5948    0.0000 C   0  0  0  0  0  0  0  0  0  0  0  0
    0.3932   -0.0918    0.0929 C   0  0  0  0  0  0  0  0  0  0  0  0
   -1.7590    0.0636    0.1653 H   0  0  0  0  0  0  0  0  0  0  0  0
   -1.7654    2.5531   -0.0002 H   0  0  0  0  0  0  0  0  0  0  0  0
    0.3950    3.7903   -0.1655 H   0  0  0  0  0  0  0  0  0  0  0  0
    2.5488    2.5629   -0.1664 H   0  0  0  0  0  0  0  0  0  0  0  0
    2.8461   -0.1129    0.0001 N   0  0  0  0  0  0  0  0  0  0  0  0
    3.3897   -0.5450   -1.2429 C   0  0  0  0  0  0  0  0  0  0  0  0
    3.4932   -0.3658    1.2429 C   0  0  0  0  0  0  0  0  0  0  0  0
    0.3798   -1.1899    0.1664 H   0  0  0  0  0  0  0  0  0  0  0  0
    4.3631   -1.0773   -1.0786 H   0  0  0  0  0  0  0  0  0  0  0  0
    2.6806   -1.2461   -1.7646 H   0  0  0  0  0  0  0  0  0  0  0  0
    3.5705    0.3320   -1.9243 H   0  0  0  0  0  0  0  0  0  0  0  0
    4.4406   -0.9432    1.0786 H   0  0  0  0  0  0  0  0  0  0  0  0
    3.7464    0.5991    1.7637 H   0  0  0  0  0  0  0  0  0  0  0  0
    2.8242   -0.9601    1.9252 H   0  0  0  0  0  0  0  0  0  0  0  0
  1  2  2  0  0  0  0
  1  6  1  0  0  0  0
  1  7  1  0  0  0  0
  2  3  1  0  0  0  0
  2  8  1  0  0  0  0
  3  4  2  0  0  0  0
  3  9  1  0  0  0  0
  4  5  1  0  0  0  0
  4 10  1  0  0  0  0
  5  6  2  0  0  0  0
  5 11  1  0  0  0  0
  6 14  1  0  0  0  0
 11 12  1  0  0  0  0
 11 13  1  0  0  0  0
 12 15  1  0  0  0  0
 12 16  1  0  0  0  0
 12 17  1  0  0  0  0
 13 18  1  0  0  0  0
 13 19  1  0  0  0  0
 13 20  1  0  0  0  0
M  END
