./000123-15-9.hin
 OpenBabel09251311033D

 19 18  0  0  1  0  0  0  0  0999 V2000
   -0.8295   -1.4490   -0.7924 C   0  0  0  0  0  0  0  0  0  0  0  0
   -0.9979    0.0429   -0.6665 C   0  0  1  0  0  0  0  0  0  0  0  0
   -2.4669    0.4056   -0.7136 C   0  0  0  0  0  0  0  0  0  0  0  0
   -0.3235    0.5749    0.5882 C   0  0  0  0  0  0  0  0  0  0  0  0
   -0.1586    2.0794    0.5578 C   0  0  0  0  0  0  0  0  0  0  0  0
    0.6471    2.5664    1.7353 C   0  0  0  0  0  0  0  0  0  0  0  0
    0.0754   -2.0890   -0.2577 O   0  0  0  0  0  0  0  0  0  0  0  0
   -1.5882   -1.9502   -1.4371 H   0  0  0  0  0  0  0  0  0  0  0  0
   -0.4855    0.4908   -1.5687 H   0  0  0  0  0  0  0  0  0  0  0  0
   -2.5863    1.5152   -0.7468 H   0  0  0  0  0  0  0  0  0  0  0  0
   -2.9510   -0.0284   -1.6220 H   0  0  0  0  0  0  0  0  0  0  0  0
   -2.9970    0.0207    0.1907 H   0  0  0  0  0  0  0  0  0  0  0  0
   -0.9254    0.2798    1.4876 H   0  0  0  0  0  0  0  0  0  0  0  0
    0.6844    0.0883    0.6897 H   0  0  0  0  0  0  0  0  0  0  0  0
    0.3493    2.3851   -0.3952 H   0  0  0  0  0  0  0  0  0  0  0  0
   -1.1683    2.5692    0.5671 H   0  0  0  0  0  0  0  0  0  0  0  0
    0.7185    3.6809    1.7207 H   0  0  0  0  0  0  0  0  0  0  0  0
    0.1705    2.2558    2.6962 H   0  0  0  0  0  0  0  0  0  0  0  0
    1.6818    2.1468    1.7066 H   0  0  0  0  0  0  0  0  0  0  0  0
  1  2  1  0  0  0  0
  1  7  2  0  0  0  0
  1  8  1  0  0  0  0
  2  3  1  0  0  0  0
  2  4  1  0  0  0  0
  2  9  1  6  0  0  0
  3 10  1  0  0  0  0
  3 11  1  0  0  0  0
  3 12  1  0  0  0  0
  4  5  1  0  0  0  0
  4 13  1  0  0  0  0
  4 14  1  0  0  0  0
  5  6  1  0  0  0  0
  5 15  1  0  0  0  0
  5 16  1  0  0  0  0
  6 17  1  0  0  0  0
  6 18  1  0  0  0  0
  6 19  1  0  0  0  0
M  END
