./000123-35-3.hin
 OpenBabel09251311033D

 26 25  0  0  0  0  0  0  0  0999 V2000
   -1.8398    3.2012   -0.7209 C   0  0  0  0  0  0  0  0  0  0  0  0
   -2.0609    2.0610   -0.0525 C   0  0  0  0  0  0  0  0  0  0  0  0
   -0.9792    1.0446    0.1238 C   0  0  0  0  0  0  0  0  0  0  0  0
   -1.1460   -0.1212   -0.8341 C   0  0  0  0  0  0  0  0  0  0  0  0
   -0.0930   -1.1462   -0.6482 C   0  0  0  0  0  0  0  0  0  0  0  0
    0.0674   -2.1978   -1.4679 C   0  0  0  0  0  0  0  0  0  0  0  0
    1.1305   -3.2070   -1.2460 C   0  0  0  0  0  0  0  0  0  0  0  0
   -0.8007   -2.4184   -2.6494 C   0  0  0  0  0  0  0  0  0  0  0  0
   -3.3453    1.7212    0.5463 C   0  0  0  0  0  0  0  0  0  0  0  0
   -2.6175    3.9615   -0.8662 H   0  0  0  0  0  0  0  0  0  0  0  0
    0.0242    1.5194   -0.0435 H   0  0  0  0  0  0  0  0  0  0  0  0
   -0.9955    0.6658    1.1811 H   0  0  0  0  0  0  0  0  0  0  0  0
    0.5714   -1.0076    0.2201 H   0  0  0  0  0  0  0  0  0  0  0  0
    1.7906   -3.2729   -2.1469 H   0  0  0  0  0  0  0  0  0  0  0  0
    1.7642   -2.9528   -0.3616 H   0  0  0  0  0  0  0  0  0  0  0  0
    0.6732   -4.2138   -1.0751 H   0  0  0  0  0  0  0  0  0  0  0  0
   -0.6109   -3.4171   -3.1127 H   0  0  0  0  0  0  0  0  0  0  0  0
   -1.8802   -2.3611   -2.3592 H   0  0  0  0  0  0  0  0  0  0  0  0
   -0.6100   -1.6292   -3.4203 H   0  0  0  0  0  0  0  0  0  0  0  0
   -3.4791    0.6474    0.7716 H   0  0  0  0  0  0  0  0  0  0  0  0
   -4.3137    2.5928    0.8346 C   0  0  0  0  0  0  0  0  0  0  0  0
   -0.8649    3.4378   -1.1660 H   0  0  0  0  0  0  0  0  0  0  0  0
   -5.2614    2.2764    1.2894 H   0  0  0  0  0  0  0  0  0  0  0  0
   -4.2279    3.6704    0.6442 H   0  0  0  0  0  0  0  0  0  0  0  0
   -2.1563   -0.5925   -0.6807 H   0  0  0  0  0  0  0  0  0  0  0  0
   -1.1246    0.2576   -1.8927 H   0  0  0  0  0  0  0  0  0  0  0  0
  1  2  2  0  0  0  0
  1 10  1  0  0  0  0
  1 22  1  0  0  0  0
  2  3  1  0  0  0  0
  2  9  1  0  0  0  0
  3  4  1  0  0  0  0
  3 11  1  0  0  0  0
  3 12  1  0  0  0  0
  4  5  1  0  0  0  0
  4 25  1  0  0  0  0
  4 26  1  0  0  0  0
  5  6  2  0  0  0  0
  5 13  1  0  0  0  0
  6  7  1  0  0  0  0
  6  8  1  0  0  0  0
  7 14  1  0  0  0  0
  7 15  1  0  0  0  0
  7 16  1  0  0  0  0
  8 17  1  0  0  0  0
  8 18  1  0  0  0  0
  8 19  1  0  0  0  0
  9 20  1  0  0  0  0
  9 21  2  0  0  0  0
 21 23  1  0  0  0  0
 21 24  1  0  0  0  0
M  END
