./000123-38-6.hin
 OpenBabel09251311033D

 10  9  0  0  0  0  0  0  0  0999 V2000
    2.1895    4.8669   -0.0666 C   0  0  0  0  0  0  0  0  0  0  0  0
    2.1594    6.3632   -0.0666 C   0  0  0  0  0  0  0  0  0  0  0  0
    0.7664    6.9338   -0.0666 C   0  0  0  0  0  0  0  0  0  0  0  0
    3.2132    4.4256   -0.0666 H   0  0  0  0  0  0  0  0  0  0  0  0
    2.7222    6.7210    0.8378 H   0  0  0  0  0  0  0  0  0  0  0  0
    0.8044    8.0493   -0.0666 H   0  0  0  0  0  0  0  0  0  0  0  0
    0.2049    6.5919   -0.9697 H   0  0  0  0  0  0  0  0  0  0  0  0
    0.2049    6.5919    0.8366 H   0  0  0  0  0  0  0  0  0  0  0  0
    1.1882    4.1511   -0.0666 O   0  0  0  0  0  0  0  0  0  0  0  0
    2.7222    6.7210   -0.9709 H   0  0  0  0  0  0  0  0  0  0  0  0
  1  2  1  0  0  0  0
  1  4  1  0  0  0  0
  1  9  2  0  0  0  0
  2  3  1  0  0  0  0
  2  5  1  0  0  0  0
  2 10  1  0  0  0  0
  3  6  1  0  0  0  0
  3  7  1  0  0  0  0
  3  8  1  0  0  0  0
M  END
