./000124-13-0.hin
 OpenBabel09251311033D

 25 24  0  0  0  0  0  0  0  0999 V2000
    1.7506   -4.8577    0.0000 C   0  0  0  0  0  0  0  0  0  0  0  0
    1.7283   -3.3510    0.0000 C   0  0  0  0  0  0  0  0  0  0  0  0
    0.3116   -2.8169   -0.0000 C   0  0  0  0  0  0  0  0  0  0  0  0
    0.2933   -1.3034    0.0000 C   0  0  0  0  0  0  0  0  0  0  0  0
   -1.1244   -0.7731   -0.0000 C   0  0  0  0  0  0  0  0  0  0  0  0
   -1.1440    0.7406    0.0000 C   0  0  0  0  0  0  0  0  0  0  0  0
   -2.5618    1.2659   -0.0000 C   0  0  0  0  0  0  0  0  0  0  0  0
   -2.6085    2.7625    0.0000 C   0  0  0  0  0  0  0  0  0  0  0  0
   -3.6640    3.3972    0.0000 O   0  0  0  0  0  0  0  0  0  0  0  0
    2.8033   -5.2303    0.0000 H   0  0  0  0  0  0  0  0  0  0  0  0
    1.2340   -5.2599    0.9049 H   0  0  0  0  0  0  0  0  0  0  0  0
    1.2340   -5.2599   -0.9049 H   0  0  0  0  0  0  0  0  0  0  0  0
    2.2727   -2.9659    0.9025 H   0  0  0  0  0  0  0  0  0  0  0  0
    2.2727   -2.9659   -0.9025 H   0  0  0  0  0  0  0  0  0  0  0  0
   -0.2337   -3.1999   -0.9026 H   0  0  0  0  0  0  0  0  0  0  0  0
   -0.2337   -3.1999    0.9026 H   0  0  0  0  0  0  0  0  0  0  0  0
    0.8387   -0.9205    0.9027 H   0  0  0  0  0  0  0  0  0  0  0  0
    0.8387   -0.9205   -0.9027 H   0  0  0  0  0  0  0  0  0  0  0  0
   -1.6695   -1.1563   -0.9028 H   0  0  0  0  0  0  0  0  0  0  0  0
   -1.6695   -1.1563    0.9028 H   0  0  0  0  0  0  0  0  0  0  0  0
   -0.5987    1.1233    0.9030 H   0  0  0  0  0  0  0  0  0  0  0  0
   -0.5986    1.1233   -0.9030 H   0  0  0  0  0  0  0  0  0  0  0  0
   -3.1138    0.8871   -0.9023 H   0  0  0  0  0  0  0  0  0  0  0  0
   -3.1138    0.8870    0.9022 H   0  0  0  0  0  0  0  0  0  0  0  0
   -1.6220    3.2797   -0.0000 H   0  0  0  0  0  0  0  0  0  0  0  0
  1  2  1  0  0  0  0
  1 10  1  0  0  0  0
  1 11  1  0  0  0  0
  1 12  1  0  0  0  0
  2  3  1  0  0  0  0
  2 13  1  0  0  0  0
  2 14  1  0  0  0  0
  3  4  1  0  0  0  0
  3 15  1  0  0  0  0
  3 16  1  0  0  0  0
  4  5  1  0  0  0  0
  4 17  1  0  0  0  0
  4 18  1  0  0  0  0
  5  6  1  0  0  0  0
  5 19  1  0  0  0  0
  5 20  1  0  0  0  0
  6  7  1  0  0  0  0
  6 21  1  0  0  0  0
  6 22  1  0  0  0  0
  7  8  1  0  0  0  0
  7 23  1  0  0  0  0
  7 24  1  0  0  0  0
  8  9  2  0  0  0  0
  8 25  1  0  0  0  0
M  END
