./000156-60-5.hin
 OpenBabel09251311033D

  6  5  0  0  0  0  0  0  0  0999 V2000
   -1.0357    0.0625    0.0000 C   0  0  0  0  0  0  0  0  0  0  0  0
   -1.0438    1.3979   -0.0000 C   0  0  0  0  0  0  0  0  0  0  0  0
   -2.4821    2.2858   -0.0000 Cl  0  0  0  0  0  0  0  0  0  0  0  0
    0.4025   -0.8253    0.0000 Cl  0  0  0  0  0  0  0  0  0  0  0  0
   -1.9349   -0.5685    0.0000 H   0  0  0  0  0  0  0  0  0  0  0  0
   -0.1446    2.0290    0.0000 H   0  0  0  0  0  0  0  0  0  0  0  0
  1  2  2  0  0  0  0
  1  4  1  0  0  0  0
  1  5  1  0  0  0  0
  2  3  1  0  0  0  0
  2  6  1  0  0  0  0
M  END
