./000275-51-4.hin
 OpenBabel09251311033D

 18 19  0  0  0  0  0  0  0  0999 V2000
   -2.9997   -5.6075   -3.2612 C   0  0  0  0  0  0  0  0  0  0  0  0
   -3.0247   -4.1234   -3.2620 C   0  0  0  0  0  0  0  0  0  0  0  0
   -1.6290   -3.7033   -3.2618 C   0  0  0  0  0  0  0  0  0  0  0  0
   -0.8282   -4.8282   -3.2610 C   0  0  0  0  0  0  0  0  0  0  0  0
   -1.6658   -6.0051   -3.2607 C   0  0  0  0  0  0  0  0  0  0  0  0
   -1.3118   -2.6629   -3.2621 H   0  0  0  0  0  0  0  0  0  0  0  0
   -4.0916   -3.2855   -3.2628 C   0  0  0  0  0  0  0  0  0  0  0  0
   -5.4662   -3.6241   -3.2630 C   0  0  0  0  0  0  0  0  0  0  0  0
   -6.0424   -4.8569   -3.2623 C   0  0  0  0  0  0  0  0  0  0  0  0
   -5.4390   -6.1376   -3.2613 C   0  0  0  0  0  0  0  0  0  0  0  0
   -4.1194   -6.4664   -3.2609 C   0  0  0  0  0  0  0  0  0  0  0  0
    0.2607   -4.8548   -3.2606 H   0  0  0  0  0  0  0  0  0  0  0  0
   -1.2945   -7.0276   -3.2601 H   0  0  0  0  0  0  0  0  0  0  0  0
   -3.8758   -2.1972   -3.2635 H   0  0  0  0  0  0  0  0  0  0  0  0
   -6.1525   -2.7538   -3.2638 H   0  0  0  0  0  0  0  0  0  0  0  0
   -7.1521   -4.8799   -3.2624 H   0  0  0  0  0  0  0  0  0  0  0  0
   -6.1592   -6.9803   -3.2608 H   0  0  0  0  0  0  0  0  0  0  0  0
   -3.8683   -7.5474   -3.2603 H   0  0  0  0  0  0  0  0  0  0  0  0
  1  2  1  0  0  0  0
  1  5  1  0  0  0  0
  1 11  2  0  0  0  0
  2  3  2  0  0  0  0
  2  7  1  0  0  0  0
  3  4  1  0  0  0  0
  3  6  1  0  0  0  0
  4  5  2  0  0  0  0
  4 12  1  0  0  0  0
  5 13  1  0  0  0  0
  7  8  2  0  0  0  0
  7 14  1  0  0  0  0
  8  9  1  0  0  0  0
  8 15  1  0  0  0  0
  9 10  2  0  0  0  0
  9 16  1  0  0  0  0
 10 11  1  0  0  0  0
 10 17  1  0  0  0  0
 11 18  1  0  0  0  0
M  END
