./000469-61-4.hin
 OpenBabel09251311033D

 39 41  0  0  1  0  0  0  0  0999 V2000
   -3.4196   -1.1649   -0.1866 C   0  0  0  0  0  0  0  0  0  0  0  0
   -3.3838    0.3799   -0.3110 C   0  0  2  0  0  0  0  0  0  0  0  0
   -1.8835    0.7038   -0.2833 C   0  0  1  0  0  0  0  0  0  0  0  0
   -1.3656   -0.3728    0.7264 C   0  0  1  0  0  0  0  0  0  0  0  0
   -2.0245   -1.6506    0.2531 C   0  0  0  0  0  0  0  0  0  0  0  0
   -4.1658    1.0602    0.7844 C   0  0  0  0  0  0  0  0  0  0  0  0
    0.1205   -0.0688    0.9335 C   0  0  0  0  0  0  0  0  0  0  0  0
    0.2327    1.4233    0.4526 C   0  0  1  0  0  0  0  0  0  0  0  0
    0.8064    1.4835   -0.9303 C   0  0  0  0  0  0  0  0  0  0  0  0
    0.0252    1.0722   -1.9433 C   0  0  0  0  0  0  0  0  0  0  0  0
   -1.3557    0.5690   -1.7232 C   0  0  0  0  0  0  0  0  0  0  0  0
   -1.2305    1.9418    0.3321 C   0  0  0  0  0  0  0  0  0  0  0  0
    2.1764    2.0081   -1.0946 C   0  0  0  0  0  0  0  0  0  0  0  0
    1.0201   -1.0242    0.1788 C   0  0  0  0  0  0  0  0  0  0  0  0
    0.4790   -0.1335    2.4114 C   0  0  0  0  0  0  0  0  0  0  0  0
   -3.6908   -1.6192   -1.1700 H   0  0  0  0  0  0  0  0  0  0  0  0
   -4.1904   -1.4725    0.5610 H   0  0  0  0  0  0  0  0  0  0  0  0
   -3.8333    0.6808   -1.2954 H   0  0  0  0  0  0  0  0  0  0  0  0
   -1.8614   -0.1412    1.7199 H   0  0  0  0  0  0  0  0  0  0  0  0
   -2.0990   -2.4083    1.0698 H   0  0  0  0  0  0  0  0  0  0  0  0
   -1.4708   -2.1188   -0.5968 H   0  0  0  0  0  0  0  0  0  0  0  0
   -3.7959    0.7599    1.7944 H   0  0  0  0  0  0  0  0  0  0  0  0
   -4.0705    2.1695    0.6918 H   0  0  0  0  0  0  0  0  0  0  0  0
   -5.2467    0.7875    0.7120 H   0  0  0  0  0  0  0  0  0  0  0  0
    0.8287    2.0312    1.1734 H   0  0  0  0  0  0  0  0  0  0  0  0
    0.3669    1.0868   -2.9886 H   0  0  0  0  0  0  0  0  0  0  0  0
   -1.4083   -0.5083   -2.0368 H   0  0  0  0  0  0  0  0  0  0  0  0
   -2.0419    1.1475   -2.4024 H   0  0  0  0  0  0  0  0  0  0  0  0
   -1.2958    2.8435   -0.3182 H   0  0  0  0  0  0  0  0  0  0  0  0
   -1.6595    2.1842    1.3329 H   0  0  0  0  0  0  0  0  0  0  0  0
    2.8981    1.3967   -0.4960 H   0  0  0  0  0  0  0  0  0  0  0  0
    2.4971    1.9872   -2.1650 H   0  0  0  0  0  0  0  0  0  0  0  0
    2.2299    3.0647   -0.7296 H   0  0  0  0  0  0  0  0  0  0  0  0
    0.6957   -1.1201   -0.8858 H   0  0  0  0  0  0  0  0  0  0  0  0
    2.0765   -0.6626    0.1994 H   0  0  0  0  0  0  0  0  0  0  0  0
    0.9773   -2.0362    0.6508 H   0  0  0  0  0  0  0  0  0  0  0  0
    0.2555   -1.1485    2.8191 H   0  0  0  0  0  0  0  0  0  0  0  0
    1.5668    0.0755    2.5514 H   0  0  0  0  0  0  0  0  0  0  0  0
   -0.1051    0.6203    2.9925 H   0  0  0  0  0  0  0  0  0  0  0  0
  1  2  1  0  0  0  0
  1  5  1  0  0  0  0
  1 16  1  0  0  0  0
  1 17  1  0  0  0  0
  2  3  1  0  0  0  0
  2  6  1  0  0  0  0
  2 18  1  6  0  0  0
  3  4  1  0  0  0  0
  3 11  1  6  0  0  0
  3 12  1  0  0  0  0
  4  5  1  0  0  0  0
  4  7  1  0  0  0  0
  4 19  1  1  0  0  0
  5 20  1  0  0  0  0
  5 21  1  0  0  0  0
  6 22  1  0  0  0  0
  6 23  1  0  0  0  0
  6 24  1  0  0  0  0
  7  8  1  0  0  0  0
  7 14  1  0  0  0  0
  7 15  1  0  0  0  0
  8  9  1  0  0  0  0
  8 12  1  0  0  0  0
  8 25  1  1  0  0  0
  9 10  2  0  0  0  0
  9 13  1  0  0  0  0
 10 11  1  0  0  0  0
 10 26  1  0  0  0  0
 11 27  1  0  0  0  0
 11 28  1  0  0  0  0
 12 29  1  0  0  0  0
 12 30  1  0  0  0  0
 13 31  1  0  0  0  0
 13 32  1  0  0  0  0
 13 33  1  0  0  0  0
 14 34  1  0  0  0  0
 14 35  1  0  0  0  0
 14 36  1  0  0  0  0
 15 37  1  0  0  0  0
 15 38  1  0  0  0  0
 15 39  1  0  0  0  0
M  END
