./000498-66-8.hin
 OpenBabel09251311033D

 17 18  0  0  1  0  0  0  0  0999 V2000
   -1.3044    0.0254   -0.3548 C   0  0  2  0  0  0  0  0  0  0  0  0
   -0.0257    1.9669   -0.3640 C   0  0  0  0  0  0  0  0  0  0  0  0
    0.8625    0.7295   -0.3547 C   0  0  1  0  0  0  0  0  0  0  0  0
   -1.3132    1.5486   -0.3641 C   0  0  0  0  0  0  0  0  0  0  0  0
    0.6800    0.1002    1.0501 C   0  0  0  0  0  0  0  0  0  0  0  0
   -0.7870   -0.3765    1.0500 C   0  0  0  0  0  0  0  0  0  0  0  0
   -2.2333   -0.4728   -0.6788 H   0  0  0  0  0  0  0  0  0  0  0  0
    0.3730    2.9777   -0.3519 H   0  0  0  0  0  0  0  0  0  0  0  0
   -0.0206   -0.2391   -1.2058 C   0  0  0  0  0  0  0  0  0  0  0  0
    1.9069    0.8723   -0.6787 H   0  0  0  0  0  0  0  0  0  0  0  0
    0.8706    0.8471    1.8546 H   0  0  0  0  0  0  0  0  0  0  0  0
    1.3811   -0.7565    1.1852 H   0  0  0  0  0  0  0  0  0  0  0  0
   -1.3803    0.1158    1.8545 H   0  0  0  0  0  0  0  0  0  0  0  0
   -0.8508   -1.4817    1.1852 H   0  0  0  0  0  0  0  0  0  0  0  0
    0.3222   -1.2942   -1.1626 H   0  0  0  0  0  0  0  0  0  0  0  0
   -0.1260    0.0854   -2.2622 H   0  0  0  0  0  0  0  0  0  0  0  0
   -2.2299    2.1320   -0.3520 H   0  0  0  0  0  0  0  0  0  0  0  0
  1  4  1  0  0  0  0
  1  6  1  0  0  0  0
  1  7  1  6  0  0  0
  1  9  1  0  0  0  0
  2  3  1  0  0  0  0
  2  4  2  0  0  0  0
  2  8  1  0  0  0  0
  3  5  1  0  0  0  0
  3  9  1  0  0  0  0
  3 10  1  6  0  0  0
  4 17  1  0  0  0  0
  5  6  1  0  0  0  0
  5 11  1  0  0  0  0
  5 12  1  0  0  0  0
  6 13  1  0  0  0  0
  6 14  1  0  0  0  0
  9 15  1  0  0  0  0
  9 16  1  0  0  0  0
M  END
