./000540-84-1.hin
 OpenBabel09251311033D

 26 25  0  0  0  0  0  0  0  0999 V2000
  -30.0954    2.4858   40.6256 C   0  0  0  0  0  0  0  0  0  0  0  0
  -29.6869    6.6587   41.6555 C   0  0  0  0  0  0  0  0  0  0  0  0
  -30.2762    3.9938   40.5947 C   0  0  0  0  0  0  0  0  0  0  0  0
  -28.8264    6.1632   40.5051 C   0  0  0  0  0  0  0  0  0  0  0  0
  -28.9293    4.6470   40.3173 C   0  0  0  0  0  0  0  0  0  0  0  0
  -28.6182    4.3989   39.2674 H   0  0  0  0  0  0  0  0  0  0  0  0
  -28.1801    4.1641   41.0044 H   0  0  0  0  0  0  0  0  0  0  0  0
  -27.3679    6.5008   40.8124 C   0  0  0  0  0  0  0  0  0  0  0  0
  -29.2178    6.8913   39.2263 C   0  0  0  0  0  0  0  0  0  0  0  0
  -30.6356    4.3180   41.6125 H   0  0  0  0  0  0  0  0  0  0  0  0
  -31.3341    4.3578   39.5748 C   0  0  0  0  0  0  0  0  0  0  0  0
  -29.4754    7.7374   41.8543 H   0  0  0  0  0  0  0  0  0  0  0  0
  -30.7712    6.5535   41.4108 H   0  0  0  0  0  0  0  0  0  0  0  0
  -29.4679    6.0780   42.5834 H   0  0  0  0  0  0  0  0  0  0  0  0
  -31.0647    1.9846   40.8617 H   0  0  0  0  0  0  0  0  0  0  0  0
  -29.7371    2.1149   39.6355 H   0  0  0  0  0  0  0  0  0  0  0  0
  -29.3494    2.1957   41.4039 H   0  0  0  0  0  0  0  0  0  0  0  0
  -27.2298    7.6076   40.8564 H   0  0  0  0  0  0  0  0  0  0  0  0
  -27.0660    6.0661   41.7950 H   0  0  0  0  0  0  0  0  0  0  0  0
  -26.7003    6.0894   40.0183 H   0  0  0  0  0  0  0  0  0  0  0  0
  -32.2133    3.6745   39.6689 H   0  0  0  0  0  0  0  0  0  0  0  0
  -31.6919    5.4036   39.7334 H   0  0  0  0  0  0  0  0  0  0  0  0
  -30.9307    4.2713   38.5373 H   0  0  0  0  0  0  0  0  0  0  0  0
  -29.1583    7.9957   39.3806 H   0  0  0  0  0  0  0  0  0  0  0  0
  -28.5267    6.6117   38.3950 H   0  0  0  0  0  0  0  0  0  0  0  0
  -30.2592    6.6314   38.9229 H   0  0  0  0  0  0  0  0  0  0  0  0
  1  3  1  0  0  0  0
  1 15  1  0  0  0  0
  1 16  1  0  0  0  0
  1 17  1  0  0  0  0
  2  4  1  0  0  0  0
  2 12  1  0  0  0  0
  2 13  1  0  0  0  0
  2 14  1  0  0  0  0
  3  5  1  0  0  0  0
  3 10  1  0  0  0  0
  3 11  1  0  0  0  0
  4  5  1  0  0  0  0
  4  8  1  0  0  0  0
  4  9  1  0  0  0  0
  5  6  1  0  0  0  0
  5  7  1  0  0  0  0
  8 18  1  0  0  0  0
  8 19  1  0  0  0  0
  8 20  1  0  0  0  0
  9 24  1  0  0  0  0
  9 25  1  0  0  0  0
  9 26  1  0  0  0  0
 11 21  1  0  0  0  0
 11 22  1  0  0  0  0
 11 23  1  0  0  0  0
M  END
