./000586-62-9.hin
 OpenBabel09251311033D

 26 26  0  0  0  0  0  0  0  0999 V2000
    4.9182    1.6682   -1.6257 C   0  0  0  0  0  0  0  0  0  0  0  0
    0.4125    1.7685   -3.7598 C   0  0  0  0  0  0  0  0  0  0  0  0
    2.6229    1.6229   -2.5756 C   0  0  0  0  0  0  0  0  0  0  0  0
    2.3345    3.0040   -2.1024 C   0  0  0  0  0  0  0  0  0  0  0  0
    1.5187    0.9084   -3.2799 C   0  0  0  0  0  0  0  0  0  0  0  0
    1.5894    3.8374   -3.1281 C   0  0  0  0  0  0  0  0  0  0  0  0
    0.4272    3.1075   -3.7032 C   0  0  0  0  0  0  0  0  0  0  0  0
   -0.4434    1.2251   -4.1913 H   0  0  0  0  0  0  0  0  0  0  0  0
    3.2817    3.5410   -1.8286 H   0  0  0  0  0  0  0  0  0  0  0  0
    1.7142    2.9277   -1.1667 H   0  0  0  0  0  0  0  0  0  0  0  0
    1.0977    0.1278   -2.5834 H   0  0  0  0  0  0  0  0  0  0  0  0
    2.2855    4.1207   -3.9638 H   0  0  0  0  0  0  0  0  0  0  0  0
   -0.6820    3.9456   -4.2122 C   0  0  0  0  0  0  0  0  0  0  0  0
    3.8009    1.0046   -2.3406 C   0  0  0  0  0  0  0  0  0  0  0  0
    4.0416   -0.3873   -2.7960 C   0  0  0  0  0  0  0  0  0  0  0  0
    4.5858    2.0185   -0.6162 H   0  0  0  0  0  0  0  0  0  0  0  0
    5.7841    0.9761   -1.4836 H   0  0  0  0  0  0  0  0  0  0  0  0
    5.2785    2.5576   -2.2023 H   0  0  0  0  0  0  0  0  0  0  0  0
   -0.2918    4.6966   -4.9439 H   0  0  0  0  0  0  0  0  0  0  0  0
   -1.4636    3.3293   -4.7200 H   0  0  0  0  0  0  0  0  0  0  0  0
   -1.1634    4.5000   -3.3677 H   0  0  0  0  0  0  0  0  0  0  0  0
    4.1349   -0.4172   -3.9116 H   0  0  0  0  0  0  0  0  0  0  0  0
    4.9779   -0.8095   -2.3566 H   0  0  0  0  0  0  0  0  0  0  0  0
    3.1897   -1.0517   -2.5027 H   0  0  0  0  0  0  0  0  0  0  0  0
    1.9406    0.3540   -4.1672 H   0  0  0  0  0  0  0  0  0  0  0  0
    1.2445    4.7904   -2.6452 H   0  0  0  0  0  0  0  0  0  0  0  0
  1 14  1  0  0  0  0
  1 16  1  0  0  0  0
  1 17  1  0  0  0  0
  1 18  1  0  0  0  0
  2  5  1  0  0  0  0
  2  7  2  0  0  0  0
  2  8  1  0  0  0  0
  3  4  1  0  0  0  0
  3  5  1  0  0  0  0
  3 14  2  0  0  0  0
  4  6  1  0  0  0  0
  4  9  1  0  0  0  0
  4 10  1  0  0  0  0
  5 11  1  0  0  0  0
  5 25  1  0  0  0  0
  6  7  1  0  0  0  0
  6 12  1  0  0  0  0
  6 26  1  0  0  0  0
  7 13  1  0  0  0  0
 13 19  1  0  0  0  0
 13 20  1  0  0  0  0
 13 21  1  0  0  0  0
 14 15  1  0  0  0  0
 15 22  1  0  0  0  0
 15 23  1  0  0  0  0
 15 24  1  0  0  0  0
M  END
