./000590-86-3.hin
 OpenBabel09251311033D

 16 15  0  0  0  0  0  0  0  0999 V2000
  -15.9863    1.6916   35.7661 C   0  0  0  0  0  0  0  0  0  0  0  0
  -14.5048    5.2184   35.7641 C   0  0  0  0  0  0  0  0  0  0  0  0
  -15.9925    3.2035   35.6785 C   0  0  0  0  0  0  0  0  0  0  0  0
  -14.5667    3.7284   35.6297 C   0  0  0  0  0  0  0  0  0  0  0  0
  -14.0733    3.4101   34.6734 H   0  0  0  0  0  0  0  0  0  0  0  0
  -13.9732    3.2851   36.4753 H   0  0  0  0  0  0  0  0  0  0  0  0
  -16.4922    3.6109   36.6036 H   0  0  0  0  0  0  0  0  0  0  0  0
  -16.7786    3.6617   34.4680 C   0  0  0  0  0  0  0  0  0  0  0  0
  -15.3394    5.6866   36.3343 H   0  0  0  0  0  0  0  0  0  0  0  0
  -13.5902    5.8961   35.2940 O   0  0  0  0  0  0  0  0  0  0  0  0
  -17.0328    1.3039   35.8033 H   0  0  0  0  0  0  0  0  0  0  0  0
  -15.4766    1.2493   34.8765 H   0  0  0  0  0  0  0  0  0  0  0  0
  -15.4494    1.3553   36.6855 H   0  0  0  0  0  0  0  0  0  0  0  0
  -17.8358    3.3094   34.5376 H   0  0  0  0  0  0  0  0  0  0  0  0
  -16.7776    4.7769   34.4037 H   0  0  0  0  0  0  0  0  0  0  0  0
  -16.3308    3.2529   33.5302 H   0  0  0  0  0  0  0  0  0  0  0  0
  1  3  1  0  0  0  0
  1 11  1  0  0  0  0
  1 12  1  0  0  0  0
  1 13  1  0  0  0  0
  2  4  1  0  0  0  0
  2  9  1  0  0  0  0
  2 10  2  0  0  0  0
  3  4  1  0  0  0  0
  3  7  1  0  0  0  0
  3  8  1  0  0  0  0
  4  5  1  0  0  0  0
  4  6  1  0  0  0  0
  8 14  1  0  0  0  0
  8 15  1  0  0  0  0
  8 16  1  0  0  0  0
M  END
