./000622-96-8.hin
 OpenBabel09251311033D

 21 21  0  0  0  0  0  0  0  0999 V2000
   -4.2282    0.1179   -0.2375 C   0  0  0  0  0  0  0  0  0  0  0  0
   -4.1521    1.5009   -0.0335 C   0  0  0  0  0  0  0  0  0  0  0  0
   -2.9205    2.1488   -0.0449 C   0  0  0  0  0  0  0  0  0  0  0  0
   -1.7395    1.4269   -0.2585 C   0  0  0  0  0  0  0  0  0  0  0  0
   -1.8154    0.0444   -0.4585 C   0  0  0  0  0  0  0  0  0  0  0  0
   -3.0483   -0.6040   -0.4471 C   0  0  0  0  0  0  0  0  0  0  0  0
   -5.5462   -0.5737   -0.2282 C   0  0  0  0  0  0  0  0  0  0  0  0
   -5.4180   -1.6221    0.1548 H   0  0  0  0  0  0  0  0  0  0  0  0
   -6.2415   -0.0463    0.4794 H   0  0  0  0  0  0  0  0  0  0  0  0
   -6.1723   -0.6177   -1.6024 C   0  0  0  0  0  0  0  0  0  0  0  0
   -7.1571   -1.1425   -1.5566 H   0  0  0  0  0  0  0  0  0  0  0  0
   -6.3376    0.4152   -1.9934 H   0  0  0  0  0  0  0  0  0  0  0  0
   -5.5119   -1.1626   -2.3193 H   0  0  0  0  0  0  0  0  0  0  0  0
   -5.0730    2.0781    0.1374 H   0  0  0  0  0  0  0  0  0  0  0  0
   -2.8700    3.2361    0.1150 H   0  0  0  0  0  0  0  0  0  0  0  0
   -3.0952   -1.6920   -0.6033 H   0  0  0  0  0  0  0  0  0  0  0  0
   -0.4357    2.1284   -0.2736 C   0  0  0  0  0  0  0  0  0  0  0  0
   -0.8953   -0.5352   -0.6258 H   0  0  0  0  0  0  0  0  0  0  0  0
    0.4160    1.4049   -0.2758 H   0  0  0  0  0  0  0  0  0  0  0  0
   -0.3553    2.7695   -1.1875 H   0  0  0  0  0  0  0  0  0  0  0  0
   -0.3358    2.7882    0.6242 H   0  0  0  0  0  0  0  0  0  0  0  0
  1  2  2  0  0  0  0
  1  6  1  0  0  0  0
  1  7  1  0  0  0  0
  2  3  1  0  0  0  0
  2 14  1  0  0  0  0
  3  4  2  0  0  0  0
  3 15  1  0  0  0  0
  4  5  1  0  0  0  0
  4 17  1  0  0  0  0
  5  6  2  0  0  0  0
  5 18  1  0  0  0  0
  6 16  1  0  0  0  0
  7  8  1  0  0  0  0
  7  9  1  0  0  0  0
  7 10  1  0  0  0  0
 10 11  1  0  0  0  0
 10 12  1  0  0  0  0
 10 13  1  0  0  0  0
 17 19  1  0  0  0  0
 17 20  1  0  0  0  0
 17 21  1  0  0  0  0
M  END
