./000624-64-6.hin
 OpenBabel09251311033D

 12 11  0  0  0  0  0  0  0  0999 V2000
   -0.4036   -0.7100    0.0101 C   0  0  0  0  0  0  0  0  0  0  0  0
   -0.4276    0.7650    0.0420 C   0  0  0  0  0  0  0  0  0  0  0  0
    0.2155   -1.0654   -0.8518 H   0  0  0  0  0  0  0  0  0  0  0  0
    0.0528   -1.1070    0.9517 H   0  0  0  0  0  0  0  0  0  0  0  0
   -1.4291   -1.1425   -0.0924 H   0  0  0  0  0  0  0  0  0  0  0  0
   -1.5437    1.4950   -0.0420 C   0  0  0  0  0  0  0  0  0  0  0  0
    0.5594    1.2472    0.1423 H   0  0  0  0  0  0  0  0  0  0  0  0
   -1.5677    2.9700   -0.0101 C   0  0  0  0  0  0  0  0  0  0  0  0
   -2.5308    1.0128   -0.1423 H   0  0  0  0  0  0  0  0  0  0  0  0
   -2.1871    3.3254    0.8517 H   0  0  0  0  0  0  0  0  0  0  0  0
   -0.5423    3.4025    0.0926 H   0  0  0  0  0  0  0  0  0  0  0  0
   -2.0239    3.3670   -0.9518 H   0  0  0  0  0  0  0  0  0  0  0  0
  1  2  1  0  0  0  0
  1  3  1  0  0  0  0
  1  4  1  0  0  0  0
  1  5  1  0  0  0  0
  2  6  2  0  0  0  0
  2  7  1  0  0  0  0
  6  8  1  0  0  0  0
  6  9  1  0  0  0  0
  8 10  1  0  0  0  0
  8 11  1  0  0  0  0
  8 12  1  0  0  0  0
M  END
