./000627-19-0.hin
 OpenBabel09251311033D

 13 12  0  0  0  0  0  0  0  0999 V2000
   -1.3476    0.7898    0.3527 C   0  0  0  0  0  0  0  0  0  0  0  0
   -1.3367    2.2227    0.3717 C   0  0  0  0  0  0  0  0  0  0  0  0
   -1.3208    3.4188    0.3992 C   0  0  0  0  0  0  0  0  0  0  0  0
   -0.2876    0.4092    0.3763 H   0  0  0  0  0  0  0  0  0  0  0  0
   -1.8572    0.4092    1.2825 H   0  0  0  0  0  0  0  0  0  0  0  0
   -1.3065    4.4780    0.4240 H   0  0  0  0  0  0  0  0  0  0  0  0
   -2.0551    0.2336   -0.8726 C   0  0  0  0  0  0  0  0  0  0  0  0
   -2.0490   -1.2731   -0.8622 C   0  0  0  0  0  0  0  0  0  0  0  0
   -3.1116    0.6090   -0.8966 H   0  0  0  0  0  0  0  0  0  0  0  0
   -1.5476    0.6090   -1.7996 H   0  0  0  0  0  0  0  0  0  0  0  0
   -2.5716   -1.6669   -1.7672 H   0  0  0  0  0  0  0  0  0  0  0  0
   -1.0030   -1.6646   -0.8607 H   0  0  0  0  0  0  0  0  0  0  0  0
   -2.5708   -1.6646    0.0445 H   0  0  0  0  0  0  0  0  0  0  0  0
  1  2  1  0  0  0  0
  1  4  1  0  0  0  0
  1  5  1  0  0  0  0
  1  7  1  0  0  0  0
  2  3  3  0  0  0  0
  3  6  1  0  0  0  0
  7  8  1  0  0  0  0
  7  9  1  0  0  0  0
  7 10  1  0  0  0  0
  8 11  1  0  0  0  0
  8 12  1  0  0  0  0
  8 13  1  0  0  0  0
M  END
