./000628-92-2.hin
 OpenBabel09251311033D

 19 19  0  0  0  0  0  0  0  0999 V2000
   -3.2093    0.3403    0.6702 C   0  0  0  0  0  0  0  0  0  0  0  0
   -3.0777    1.8070    0.4905 C   0  0  0  0  0  0  0  0  0  0  0  0
   -1.6537    2.3217    0.6250 C   0  0  0  0  0  0  0  0  0  0  0  0
   -1.0852    1.1471    2.8139 C   0  0  0  0  0  0  0  0  0  0  0  0
   -2.4219    0.4520    3.0160 C   0  0  0  0  0  0  0  0  0  0  0  0
   -2.9108   -0.2764    1.8197 C   0  0  0  0  0  0  0  0  0  0  0  0
   -3.5826   -0.2252   -0.1972 H   0  0  0  0  0  0  0  0  0  0  0  0
   -3.7235    2.3159    1.2600 H   0  0  0  0  0  0  0  0  0  0  0  0
   -3.4781    2.1044   -0.5151 H   0  0  0  0  0  0  0  0  0  0  0  0
   -1.6784    3.3208    1.1357 H   0  0  0  0  0  0  0  0  0  0  0  0
   -0.2765    0.5168    3.2729 H   0  0  0  0  0  0  0  0  0  0  0  0
   -1.0975    2.1209    3.3717 H   0  0  0  0  0  0  0  0  0  0  0  0
   -3.1936    1.2214    3.3002 H   0  0  0  0  0  0  0  0  0  0  0  0
   -2.3362   -0.2554    3.8833 H   0  0  0  0  0  0  0  0  0  0  0  0
   -3.0309   -1.3652    1.9276 H   0  0  0  0  0  0  0  0  0  0  0  0
   -0.7100    1.4039    1.3708 C   0  0  0  0  0  0  0  0  0  0  0  0
   -1.2309    2.4892   -0.4023 H   0  0  0  0  0  0  0  0  0  0  0  0
   -0.6382    0.4244    0.8265 H   0  0  0  0  0  0  0  0  0  0  0  0
    0.3148    1.8659    1.3525 H   0  0  0  0  0  0  0  0  0  0  0  0
  1  2  1  0  0  0  0
  1  6  2  0  0  0  0
  1  7  1  0  0  0  0
  2  3  1  0  0  0  0
  2  8  1  0  0  0  0
  2  9  1  0  0  0  0
  3 10  1  0  0  0  0
  3 16  1  0  0  0  0
  3 17  1  0  0  0  0
  4  5  1  0  0  0  0
  4 11  1  0  0  0  0
  4 12  1  0  0  0  0
  4 16  1  0  0  0  0
  5  6  1  0  0  0  0
  5 13  1  0  0  0  0
  5 14  1  0  0  0  0
  6 15  1  0  0  0  0
 16 18  1  0  0  0  0
 16 19  1  0  0  0  0
M  END
