./000630-19-3.hin
 OpenBabel09251311033D

 16 15  0  0  0  0  0  0  0  0999 V2000
    1.4572    4.6840    0.2467 C   0  0  0  0  0  0  0  0  0  0  0  0
    1.4729    6.1990    0.2467 C   0  0  0  0  0  0  0  0  0  0  0  0
    2.8971    6.7270    0.2468 C   0  0  0  0  0  0  0  0  0  0  0  0
    0.4364    4.2383    0.2467 H   0  0  0  0  0  0  0  0  0  0  0  0
    0.7424    6.6811   -0.9983 C   0  0  0  0  0  0  0  0  0  0  0  0
    2.8945    7.8427    0.2467 H   0  0  0  0  0  0  0  0  0  0  0  0
    3.4409    6.3635    1.1516 H   0  0  0  0  0  0  0  0  0  0  0  0
    3.4409    6.3635   -0.6581 H   0  0  0  0  0  0  0  0  0  0  0  0
    2.4673    3.9833    0.2468 O   0  0  0  0  0  0  0  0  0  0  0  0
    0.7423    6.6812    1.4918 C   0  0  0  0  0  0  0  0  0  0  0  0
    0.7112    7.7970   -1.0101 H   0  0  0  0  0  0  0  0  0  0  0  0
    1.2686    6.3298   -1.9180 H   0  0  0  0  0  0  0  0  0  0  0  0
   -0.3052    6.2952   -1.0122 H   0  0  0  0  0  0  0  0  0  0  0  0
    0.7111    7.7970    1.5035 H   0  0  0  0  0  0  0  0  0  0  0  0
   -0.3052    6.2952    1.5056 H   0  0  0  0  0  0  0  0  0  0  0  0
    1.2685    6.3299    2.4115 H   0  0  0  0  0  0  0  0  0  0  0  0
  1  2  1  0  0  0  0
  1  4  1  0  0  0  0
  1  9  2  0  0  0  0
  2  3  1  0  0  0  0
  2  5  1  0  0  0  0
  2 10  1  0  0  0  0
  3  6  1  0  0  0  0
  3  7  1  0  0  0  0
  3  8  1  0  0  0  0
  5 11  1  0  0  0  0
  5 12  1  0  0  0  0
  5 13  1  0  0  0  0
 10 14  1  0  0  0  0
 10 15  1  0  0  0  0
 10 16  1  0  0  0  0
M  END
