./000693-02-7.hin
 OpenBabel09251311033D

 16 15  0  0  0  0  0  0  0  0999 V2000
   -1.2789    0.9042    0.4718 C   0  0  0  0  0  0  0  0  0  0  0  0
   -1.2592    2.3368    0.5058 C   0  0  0  0  0  0  0  0  0  0  0  0
   -1.2360    3.5324    0.5460 C   0  0  0  0  0  0  0  0  0  0  0  0
   -0.2210    0.5173    0.4916 H   0  0  0  0  0  0  0  0  0  0  0  0
   -1.7906    0.5173    1.3978 H   0  0  0  0  0  0  0  0  0  0  0  0
   -1.2153    4.5912    0.5819 H   0  0  0  0  0  0  0  0  0  0  0  0
   -1.9896    0.3666   -0.7593 C   0  0  0  0  0  0  0  0  0  0  0  0
   -1.9911   -1.1474   -0.7619 C   0  0  0  0  0  0  0  0  0  0  0  0
   -3.0447    0.7457   -0.7807 H   0  0  0  0  0  0  0  0  0  0  0  0
   -1.4807    0.7457   -1.6837 H   0  0  0  0  0  0  0  0  0  0  0  0
   -2.6932   -1.6944   -1.9778 C   0  0  0  0  0  0  0  0  0  0  0  0
   -0.9339   -1.5230   -0.7362 H   0  0  0  0  0  0  0  0  0  0  0  0
   -2.4975   -1.5230    0.1665 H   0  0  0  0  0  0  0  0  0  0  0  0
   -2.6837   -2.8110   -1.9615 H   0  0  0  0  0  0  0  0  0  0  0  0
   -3.7555   -1.3508   -2.0079 H   0  0  0  0  0  0  0  0  0  0  0  0
   -2.1880   -1.3508   -2.9129 H   0  0  0  0  0  0  0  0  0  0  0  0
  1  2  1  0  0  0  0
  1  4  1  0  0  0  0
  1  5  1  0  0  0  0
  1  7  1  0  0  0  0
  2  3  3  0  0  0  0
  3  6  1  0  0  0  0
  7  8  1  0  0  0  0
  7  9  1  0  0  0  0
  7 10  1  0  0  0  0
  8 11  1  0  0  0  0
  8 12  1  0  0  0  0
  8 13  1  0  0  0  0
 11 14  1  0  0  0  0
 11 15  1  0  0  0  0
 11 16  1  0  0  0  0
M  END
