./001119-16-0.hin
 OpenBabel09251311033D

 19 18  0  0  0  0  0  0  0  0999 V2000
   -1.3915   -2.2834   -1.2418 C   0  0  0  0  0  0  0  0  0  0  0  0
   -1.5245   -0.7762   -1.1542 C   0  0  0  0  0  0  0  0  0  0  0  0
   -2.9844   -0.3777   -1.2107 C   0  0  0  0  0  0  0  0  0  0  0  0
   -0.8565   -0.2710    0.1156 C   0  0  0  0  0  0  0  0  0  0  0  0
   -0.6469    1.2263    0.0987 C   0  0  0  0  0  0  0  0  0  0  0  0
    0.1031    1.7272    1.2926 C   0  0  0  0  0  0  0  0  0  0  0  0
    0.2400    2.8334    1.3196 H   0  0  0  0  0  0  0  0  0  0  0  0
    0.5482    1.0095    2.1882 O   0  0  0  0  0  0  0  0  0  0  0  0
   -0.3153   -2.5802   -1.2599 H   0  0  0  0  0  0  0  0  0  0  0  0
   -1.8778   -2.7701   -0.3624 H   0  0  0  0  0  0  0  0  0  0  0  0
   -1.8802   -2.6618   -2.1716 H   0  0  0  0  0  0  0  0  0  0  0  0
   -0.9969   -0.3219   -2.0408 H   0  0  0  0  0  0  0  0  0  0  0  0
   -3.0897    0.7337   -1.2088 H   0  0  0  0  0  0  0  0  0  0  0  0
   -3.4572   -0.7750   -2.1412 H   0  0  0  0  0  0  0  0  0  0  0  0
   -3.5375   -0.7873   -0.3313 H   0  0  0  0  0  0  0  0  0  0  0  0
   -1.4766   -0.5511    1.0074 H   0  0  0  0  0  0  0  0  0  0  0  0
    0.1392   -0.7751    0.2399 H   0  0  0  0  0  0  0  0  0  0  0  0
   -0.0748    1.5253   -0.8210 H   0  0  0  0  0  0  0  0  0  0  0  0
   -1.6373    1.7554    0.0612 H   0  0  0  0  0  0  0  0  0  0  0  0
  1  2  1  0  0  0  0
  1  9  1  0  0  0  0
  1 10  1  0  0  0  0
  1 11  1  0  0  0  0
  2  3  1  0  0  0  0
  2  4  1  0  0  0  0
  2 12  1  0  0  0  0
  3 13  1  0  0  0  0
  3 14  1  0  0  0  0
  3 15  1  0  0  0  0
  4  5  1  0  0  0  0
  4 16  1  0  0  0  0
  4 17  1  0  0  0  0
  5  6  1  0  0  0  0
  5 18  1  0  0  0  0
  5 19  1  0  0  0  0
  6  7  1  0  0  0  0
  6  8  2  0  0  0  0
M  END
