./001120-56-5.hin
 OpenBabel09251311033D

 13 13  0  0  0  0  0  0  0  0999 V2000
   -0.8636   -1.0846    0.0000 C   0  0  0  0  0  0  0  0  0  0  0  0
    0.6856   -1.0372   -0.0000 C   0  0  0  0  0  0  0  0  0  0  0  0
    0.6207    0.5113    0.0000 C   0  0  0  0  0  0  0  0  0  0  0  0
   -0.8884    0.4266    0.0000 C   0  0  0  0  0  0  0  0  0  0  0  0
   -1.8550    1.3256    0.0000 C   0  0  0  0  0  0  0  0  0  0  0  0
   -1.3064   -1.5468    0.9085 H   0  0  0  0  0  0  0  0  0  0  0  0
   -1.3064   -1.5468   -0.9085 H   0  0  0  0  0  0  0  0  0  0  0  0
    1.1516   -1.4706   -0.9083 H   0  0  0  0  0  0  0  0  0  0  0  0
    1.1516   -1.4706    0.9083 H   0  0  0  0  0  0  0  0  0  0  0  0
    1.0496    0.9864   -0.9085 H   0  0  0  0  0  0  0  0  0  0  0  0
    1.0496    0.9864    0.9085 H   0  0  0  0  0  0  0  0  0  0  0  0
   -1.6531    2.4046    0.0000 H   0  0  0  0  0  0  0  0  0  0  0  0
   -2.9165    1.0461    0.0000 H   0  0  0  0  0  0  0  0  0  0  0  0
  1  2  1  0  0  0  0
  1  4  1  0  0  0  0
  1  6  1  0  0  0  0
  1  7  1  0  0  0  0
  2  3  1  0  0  0  0
  2  8  1  0  0  0  0
  2  9  1  0  0  0  0
  3  4  1  0  0  0  0
  3 10  1  0  0  0  0
  3 11  1  0  0  0  0
  4  5  2  0  0  0  0
  5 12  1  0  0  0  0
  5 13  1  0  0  0  0
M  END
