./001192-37-6.hin
 OpenBabel09251311033D

 19 19  0  0  0  0  0  0  0  0999 V2000
   -1.5124   -0.5095   -0.3629 C   0  0  0  0  0  0  0  0  0  0  0  0
   -1.4939    0.9807   -0.3109 C   0  0  0  0  0  0  0  0  0  0  0  0
   -0.0779    1.5251   -0.2966 C   0  0  0  0  0  0  0  0  0  0  0  0
    0.7520    0.8804    0.7939 C   0  0  0  0  0  0  0  0  0  0  0  0
    0.7572   -0.6277    0.6550 C   0  0  0  0  0  0  0  0  0  0  0  0
   -0.6522   -1.1888    0.6482 C   0  0  0  0  0  0  0  0  0  0  0  0
   -2.2644   -1.1864   -1.2343 C   0  0  0  0  0  0  0  0  0  0  0  0
   -2.0281    1.3101    0.6219 H   0  0  0  0  0  0  0  0  0  0  0  0
   -2.0494    1.4125   -1.1849 H   0  0  0  0  0  0  0  0  0  0  0  0
   -0.1096    2.6348   -0.1410 H   0  0  0  0  0  0  0  0  0  0  0  0
    0.4037    1.3376   -1.2920 H   0  0  0  0  0  0  0  0  0  0  0  0
    0.3368    1.1627    1.7970 H   0  0  0  0  0  0  0  0  0  0  0  0
    1.8034    1.2660    0.7435 H   0  0  0  0  0  0  0  0  0  0  0  0
    1.3328   -1.0830    1.5025 H   0  0  0  0  0  0  0  0  0  0  0  0
    1.2767   -0.9128   -0.2972 H   0  0  0  0  0  0  0  0  0  0  0  0
   -1.1148   -1.0441    1.6626 H   0  0  0  0  0  0  0  0  0  0  0  0
   -0.6118   -2.2930    0.4531 H   0  0  0  0  0  0  0  0  0  0  0  0
   -2.9057   -0.6863   -1.9710 H   0  0  0  0  0  0  0  0  0  0  0  0
   -2.2862   -2.2831   -1.2650 H   0  0  0  0  0  0  0  0  0  0  0  0
  1  2  1  0  0  0  0
  1  6  1  0  0  0  0
  1  7  2  0  0  0  0
  2  3  1  0  0  0  0
  2  8  1  0  0  0  0
  2  9  1  0  0  0  0
  3  4  1  0  0  0  0
  3 10  1  0  0  0  0
  3 11  1  0  0  0  0
  4  5  1  0  0  0  0
  4 12  1  0  0  0  0
  4 13  1  0  0  0  0
  5  6  1  0  0  0  0
  5 14  1  0  0  0  0
  5 15  1  0  0  0  0
  6 16  1  0  0  0  0
  6 17  1  0  0  0  0
  7 18  1  0  0  0  0
  7 19  1  0  0  0  0
M  END
