./001574-41-0.hin
 OpenBabel09251311033D

 13 12  0  0  0  0  0  0  0  0999 V2000
   -0.6971    2.9836   15.0314 C   0  0  0  0  0  0  0  0  0  0  0  0
   -4.4377    5.1994   15.0314 C   0  0  0  0  0  0  0  0  0  0  0  0
   -3.2966    4.5060   15.0314 C   0  0  0  0  0  0  0  0  0  0  0  0
   -1.9866    5.1253   15.0314 C   0  0  0  0  0  0  0  0  0  0  0  0
   -5.4186    4.7074   15.0314 H   0  0  0  0  0  0  0  0  0  0  0  0
   -4.4670    6.2968   15.0314 H   0  0  0  0  0  0  0  0  0  0  0  0
   -0.8265    4.4533   15.0314 C   0  0  0  0  0  0  0  0  0  0  0  0
   -1.9784    6.2298   15.0314 H   0  0  0  0  0  0  0  0  0  0  0  0
    0.1242    5.0130   15.0314 H   0  0  0  0  0  0  0  0  0  0  0  0
    0.3774    2.6771   15.0314 H   0  0  0  0  0  0  0  0  0  0  0  0
   -1.1862    2.5429   15.9367 H   0  0  0  0  0  0  0  0  0  0  0  0
   -1.1863    2.5429   14.1261 H   0  0  0  0  0  0  0  0  0  0  0  0
   -3.3092    3.4015   15.0314 H   0  0  0  0  0  0  0  0  0  0  0  0
  1  7  1  0  0  0  0
  1 10  1  0  0  0  0
  1 11  1  0  0  0  0
  1 12  1  0  0  0  0
  2  3  2  0  0  0  0
  2  5  1  0  0  0  0
  2  6  1  0  0  0  0
  3  4  1  0  0  0  0
  3 13  1  0  0  0  0
  4  7  2  0  0  0  0
  4  8  1  0  0  0  0
  7  9  1  0  0  0  0
M  END
