./001674-10-8.hin
 OpenBabel09251311033D

 22 22  0  0  0  0  0  0  0  0999 V2000
   -0.9446   -0.0410   -0.2576 C   0  0  0  0  0  0  0  0  0  0  0  0
   -0.9436    1.4482   -0.2548 C   0  0  0  0  0  0  0  0  0  0  0  0
    0.4497    2.0421   -0.2209 C   0  0  0  0  0  0  0  0  0  0  0  0
    1.3197    1.3243    0.7875 C   0  0  0  0  0  0  0  0  0  0  0  0
    1.4405   -0.1474    0.4489 C   0  0  0  0  0  0  0  0  0  0  0  0
    0.1412   -0.7691    0.0711 C   0  0  0  0  0  0  0  0  0  0  0  0
   -2.2305   -0.6751   -0.6361 C   0  0  0  0  0  0  0  0  0  0  0  0
    0.1230   -2.2519    0.0678 C   0  0  0  0  0  0  0  0  0  0  0  0
   -1.5241    1.7993    0.6422 H   0  0  0  0  0  0  0  0  0  0  0  0
   -1.4841    1.8230   -1.1654 H   0  0  0  0  0  0  0  0  0  0  0  0
    0.3860    3.1309    0.0374 H   0  0  0  0  0  0  0  0  0  0  0  0
    0.9166    1.9641   -1.2378 H   0  0  0  0  0  0  0  0  0  0  0  0
    0.8757    1.4395    1.8111 H   0  0  0  0  0  0  0  0  0  0  0  0
    2.3399    1.7881    0.8092 H   0  0  0  0  0  0  0  0  0  0  0  0
    1.8743   -0.6956    1.3283 H   0  0  0  0  0  0  0  0  0  0  0  0
    2.1565   -0.2786   -0.4084 H   0  0  0  0  0  0  0  0  0  0  0  0
   -2.1674   -1.0791   -1.6784 H   0  0  0  0  0  0  0  0  0  0  0  0
   -2.4717   -1.5251    0.0504 H   0  0  0  0  0  0  0  0  0  0  0  0
   -3.0709    0.0603   -0.5946 H   0  0  0  0  0  0  0  0  0  0  0  0
   -0.4227   -2.6313    0.9688 H   0  0  0  0  0  0  0  0  0  0  0  0
   -0.3990   -2.6410   -0.8422 H   0  0  0  0  0  0  0  0  0  0  0  0
    1.1600   -2.6683    0.0838 H   0  0  0  0  0  0  0  0  0  0  0  0
  1  2  1  0  0  0  0
  1  6  2  0  0  0  0
  1  7  1  0  0  0  0
  2  3  1  0  0  0  0
  2  9  1  0  0  0  0
  2 10  1  0  0  0  0
  3  4  1  0  0  0  0
  3 11  1  0  0  0  0
  3 12  1  0  0  0  0
  4  5  1  0  0  0  0
  4 13  1  0  0  0  0
  4 14  1  0  0  0  0
  5  6  1  0  0  0  0
  5 15  1  0  0  0  0
  5 16  1  0  0  0  0
  6  8  1  0  0  0  0
  7 17  1  0  0  0  0
  7 18  1  0  0  0  0
  7 19  1  0  0  0  0
  8 20  1  0  0  0  0
  8 21  1  0  0  0  0
  8 22  1  0  0  0  0
M  END
