./002987-16-8.hin
 OpenBabel09251311033D

 19 18  0  0  0  0  0  0  0  0999 V2000
   -0.1239   -1.8938    0.0000 C   0  0  0  0  0  0  0  0  0  0  0  0
   -0.0840   -0.3693    0.0000 C   0  0  0  0  0  0  0  0  0  0  0  0
   -1.5223    0.1425   -0.0000 C   0  0  0  0  0  0  0  0  0  0  0  0
   -1.6557    1.6332   -0.0000 C   0  0  0  0  0  0  0  0  0  0  0  0
   -2.7518    2.1968    0.0001 O   0  0  0  0  0  0  0  0  0  0  0  0
    0.6516    0.1034    1.2445 C   0  0  0  0  0  0  0  0  0  0  0  0
    0.6516    0.1034   -1.2445 C   0  0  0  0  0  0  0  0  0  0  0  0
    0.9138   -2.3051    0.0000 H   0  0  0  0  0  0  0  0  0  0  0  0
   -0.6558   -2.2683    0.9070 H   0  0  0  0  0  0  0  0  0  0  0  0
   -0.6558   -2.2683   -0.9071 H   0  0  0  0  0  0  0  0  0  0  0  0
   -2.0562   -0.2592   -0.9040 H   0  0  0  0  0  0  0  0  0  0  0  0
   -2.0562   -0.2592    0.9039 H   0  0  0  0  0  0  0  0  0  0  0  0
   -0.7088    2.2188   -0.0000 H   0  0  0  0  0  0  0  0  0  0  0  0
    0.7364    1.2163    1.2578 H   0  0  0  0  0  0  0  0  0  0  0  0
    0.1090   -0.2242    2.1636 H   0  0  0  0  0  0  0  0  0  0  0  0
    1.6815   -0.3277    1.2669 H   0  0  0  0  0  0  0  0  0  0  0  0
    0.7364    1.2163   -1.2578 H   0  0  0  0  0  0  0  0  0  0  0  0
    1.6815   -0.3277   -1.2668 H   0  0  0  0  0  0  0  0  0  0  0  0
    0.1090   -0.2242   -2.1636 H   0  0  0  0  0  0  0  0  0  0  0  0
  1  2  1  0  0  0  0
  1  8  1  0  0  0  0
  1  9  1  0  0  0  0
  1 10  1  0  0  0  0
  2  3  1  0  0  0  0
  2  6  1  0  0  0  0
  2  7  1  0  0  0  0
  3  4  1  0  0  0  0
  3 11  1  0  0  0  0
  3 12  1  0  0  0  0
  4  5  2  0  0  0  0
  4 13  1  0  0  0  0
  6 14  1  0  0  0  0
  6 15  1  0  0  0  0
  6 16  1  0  0  0  0
  7 17  1  0  0  0  0
  7 18  1  0  0  0  0
  7 19  1  0  0  0  0
M  END
