./003338-55-4.hin
 OpenBabel09251311033D

 26 25  0  0  0  0  0  0  0  0999 V2000
   -0.3437   -3.2244   -0.6525 C   0  0  0  0  0  0  0  0  0  0  0  0
   -0.2987   -1.7392   -0.6129 C   0  0  0  0  0  0  0  0  0  0  0  0
   -1.4392   -1.0221   -0.6280 C   0  0  0  0  0  0  0  0  0  0  0  0
   -1.5067    0.4576   -0.5898 C   0  0  0  0  0  0  0  0  0  0  0  0
   -2.8925    0.9844   -0.5571 C   0  0  0  0  0  0  0  0  0  0  0  0
   -3.1827    2.2926   -0.6498 C   0  0  0  0  0  0  0  0  0  0  0  0
   -4.5794    2.7874   -0.6058 C   0  0  0  0  0  0  0  0  0  0  0  0
   -2.1320    3.3271   -0.8047 C   0  0  0  0  0  0  0  0  0  0  0  0
    1.0163   -1.1163   -0.5583 C   0  0  0  0  0  0  0  0  0  0  0  0
    0.2466   -3.6055   -1.5228 H   0  0  0  0  0  0  0  0  0  0  0  0
   -2.4092   -1.5462   -0.6735 H   0  0  0  0  0  0  0  0  0  0  0  0
   -3.6984    0.2415   -0.4442 H   0  0  0  0  0  0  0  0  0  0  0  0
   -4.7163    3.4705    0.2699 H   0  0  0  0  0  0  0  0  0  0  0  0
   -4.8115    3.3635   -1.5364 H   0  0  0  0  0  0  0  0  0  0  0  0
   -5.3129    1.9493   -0.5173 H   0  0  0  0  0  0  0  0  0  0  0  0
   -2.5632    4.3562   -0.7504 H   0  0  0  0  0  0  0  0  0  0  0  0
   -1.3595    3.2237   -0.0012 H   0  0  0  0  0  0  0  0  0  0  0  0
   -1.6181    3.2111   -1.7926 H   0  0  0  0  0  0  0  0  0  0  0  0
    1.0178   -0.0126   -0.6195 H   0  0  0  0  0  0  0  0  0  0  0  0
    2.1715   -1.7746   -0.4433 C   0  0  0  0  0  0  0  0  0  0  0  0
    0.0990   -3.6474    0.2839 H   0  0  0  0  0  0  0  0  0  0  0  0
    3.1349   -1.2493   -0.4070 H   0  0  0  0  0  0  0  0  0  0  0  0
    2.2374   -2.8682   -0.3772 H   0  0  0  0  0  0  0  0  0  0  0  0
   -0.9527    0.8373    0.3167 H   0  0  0  0  0  0  0  0  0  0  0  0
   -0.9711    0.8796   -1.4887 H   0  0  0  0  0  0  0  0  0  0  0  0
   -1.3916   -3.6009   -0.7463 H   0  0  0  0  0  0  0  0  0  0  0  0
  1  2  1  0  0  0  0
  1 10  1  0  0  0  0
  1 21  1  0  0  0  0
  1 26  1  0  0  0  0
  2  3  2  0  0  0  0
  2  9  1  0  0  0  0
  3  4  1  0  0  0  0
  3 11  1  0  0  0  0
  4  5  1  0  0  0  0
  4 24  1  0  0  0  0
  4 25  1  0  0  0  0
  5  6  2  0  0  0  0
  5 12  1  0  0  0  0
  6  7  1  0  0  0  0
  6  8  1  0  0  0  0
  7 13  1  0  0  0  0
  7 14  1  0  0  0  0
  7 15  1  0  0  0  0
  8 16  1  0  0  0  0
  8 17  1  0  0  0  0
  8 18  1  0  0  0  0
  9 19  1  0  0  0  0
  9 20  2  0  0  0  0
 20 22  1  0  0  0  0
 20 23  1  0  0  0  0
M  END
