./003856-25-5.hin
 OpenBabel02071412583D

 39 41  0  0  1  0  0  0  0  0999 V2000
   -0.9537   -2.0570   -0.6622 C   0  0  0  0  0  0  0  0  0  0  0  0
   -0.0071   -2.6241    0.1124 C   0  0  0  0  0  0  0  0  0  0  0  0
   -0.8448   -0.5852   -0.8975 C   0  0  2  0  0  0  0  0  0  0  0  0
    0.6393   -0.2059   -1.2727 C   0  0  1  0  0  0  0  0  0  0  0  0
    0.9372   -0.3347    0.2628 C   0  0  2  0  0  0  0  0  0  0  0  0
    1.1026   -1.7909    0.6663 C   0  0  0  0  0  0  0  0  0  0  0  0
   -2.0845   -2.7810   -1.2718 C   0  0  0  0  0  0  0  0  0  0  0  0
    1.3954   -1.0670   -2.2326 C   0  0  0  0  0  0  0  0  0  0  0  0
   -0.5519    0.0900    0.4925 C   0  0  1  0  0  0  0  0  0  0  0  0
   -0.7507    1.5901    0.3884 C   0  0  2  0  0  0  0  0  0  0  0  0
    0.2891    2.1959   -0.5507 C   0  0  0  0  0  0  0  0  0  0  0  0
   -0.7858    2.2615    1.7611 C   0  0  0  0  0  0  0  0  0  0  0  0
    0.4651    2.0294    2.5807 C   0  0  0  0  0  0  0  0  0  0  0  0
   -1.0588    3.7456    1.6265 C   0  0  0  0  0  0  0  0  0  0  0  0
    0.6761    1.2595   -1.6845 C   0  0  0  0  0  0  0  0  0  0  0  0
    0.0020   -3.6931    0.3598 H   0  0  0  0  0  0  0  0  0  0  0  0
   -1.6450   -0.1505   -1.5220 H   0  0  0  0  0  0  0  0  0  0  0  0
    1.7228    0.3262    0.6731 H   0  0  0  0  0  0  0  0  0  0  0  0
    1.1101   -1.8704    1.7857 H   0  0  0  0  0  0  0  0  0  0  0  0
    2.0857   -2.1795    0.2890 H   0  0  0  0  0  0  0  0  0  0  0  0
   -2.0424   -2.6909   -2.3866 H   0  0  0  0  0  0  0  0  0  0  0  0
   -2.0684   -3.8657   -1.0031 H   0  0  0  0  0  0  0  0  0  0  0  0
   -3.0545   -2.3439   -0.9249 H   0  0  0  0  0  0  0  0  0  0  0  0
    1.0614   -0.8636   -3.2797 H   0  0  0  0  0  0  0  0  0  0  0  0
    2.4896   -0.8497   -2.1610 H   0  0  0  0  0  0  0  0  0  0  0  0
    1.2368   -2.1517   -2.0165 H   0  0  0  0  0  0  0  0  0  0  0  0
   -1.0571   -0.3608    1.3682 H   0  0  0  0  0  0  0  0  0  0  0  0
   -1.7680    1.7583   -0.0747 H   0  0  0  0  0  0  0  0  0  0  0  0
    1.2096    2.4600    0.0338 H   0  0  0  0  0  0  0  0  0  0  0  0
   -0.1118    3.1521   -0.9776 H   0  0  0  0  0  0  0  0  0  0  0  0
   -1.6495    1.7984    2.3231 H   0  0  0  0  0  0  0  0  0  0  0  0
    0.3321    2.4531    3.6058 H   0  0  0  0  0  0  0  0  0  0  0  0
    0.6733    0.9355    2.6710 H   0  0  0  0  0  0  0  0  0  0  0  0
    1.3522    2.5209    2.1139 H   0  0  0  0  0  0  0  0  0  0  0  0
   -1.1951    4.2045    2.6354 H   0  0  0  0  0  0  0  0  0  0  0  0
   -0.2066    4.2583    1.1183 H   0  0  0  0  0  0  0  0  0  0  0  0
   -1.9847    3.9205    1.0276 H   0  0  0  0  0  0  0  0  0  0  0  0
    1.7072    1.5220   -2.0388 H   0  0  0  0  0  0  0  0  0  0  0  0
   -0.0214    1.4025   -2.5513 H   0  0  0  0  0  0  0  0  0  0  0  0
  1  2  2  0  0  0  0
  1  3  1  0  0  0  0
  1  7  1  0  0  0  0
  2  6  1  0  0  0  0
  2 16  1  0  0  0  0
  3  4  1  0  0  0  0
  3  9  1  0  0  0  0
  3 17  1  6  0  0  0
  4  5  1  0  0  0  0
  4  8  1  6  0  0  0
  4 15  1  0  0  0  0
  5  6  1  0  0  0  0
  5  9  1  0  0  0  0
  5 18  1  1  0  0  0
  6 19  1  0  0  0  0
  6 20  1  0  0  0  0
  7 21  1  0  0  0  0
  7 22  1  0  0  0  0
  7 23  1  0  0  0  0
  8 24  1  0  0  0  0
  8 25  1  0  0  0  0
  8 26  1  0  0  0  0
  9 10  1  0  0  0  0
  9 27  1  1  0  0  0
 10 11  1  0  0  0  0
 10 12  1  0  0  0  0
 10 28  1  6  0  0  0
 11 15  1  0  0  0  0
 11 29  1  0  0  0  0
 11 30  1  0  0  0  0
 12 13  1  0  0  0  0
 12 14  1  0  0  0  0
 12 31  1  0  0  0  0
 13 32  1  0  0  0  0
 13 33  1  0  0  0  0
 13 34  1  0  0  0  0
 14 35  1  0  0  0  0
 14 36  1  0  0  0  0
 14 37  1  0  0  0  0
 15 38  1  0  0  0  0
 15 39  1  0  0  0  0
M  END
