./004054-38-0.hin
 OpenBabel09251311033D

 17 17  0  0  0  0  0  0  0  0999 V2000
   -2.4662   -0.1424   -0.0728 C   0  0  0  0  0  0  0  0  0  0  0  0
   -1.4095   -0.7792   -0.8961 C   0  0  0  0  0  0  0  0  0  0  0  0
   -0.1108   -0.7680   -0.5603 C   0  0  0  0  0  0  0  0  0  0  0  0
    0.3966   -0.0368    0.5860 C   0  0  0  0  0  0  0  0  0  0  0  0
   -0.0434    1.1861    0.9184 C   0  0  0  0  0  0  0  0  0  0  0  0
   -1.0046    1.9554    0.0913 C   0  0  0  0  0  0  0  0  0  0  0  0
   -2.3896   -0.5565    0.9721 H   0  0  0  0  0  0  0  0  0  0  0  0
   -3.4770   -0.4331   -0.4672 H   0  0  0  0  0  0  0  0  0  0  0  0
   -1.7547   -1.3283   -1.7861 H   0  0  0  0  0  0  0  0  0  0  0  0
    0.6362   -1.3228   -1.1508 H   0  0  0  0  0  0  0  0  0  0  0  0
    1.1742   -0.5445    1.1794 H   0  0  0  0  0  0  0  0  0  0  0  0
    0.3499    1.7016    1.8085 H   0  0  0  0  0  0  0  0  0  0  0  0
   -0.5870    2.0250   -0.9527 H   0  0  0  0  0  0  0  0  0  0  0  0
   -2.4015    1.3707    0.0080 C   0  0  0  0  0  0  0  0  0  0  0  0
   -1.0829    3.0051    0.4835 H   0  0  0  0  0  0  0  0  0  0  0  0
   -2.9081    1.8115   -0.8924 H   0  0  0  0  0  0  0  0  0  0  0  0
   -2.9927    1.6949    0.9063 H   0  0  0  0  0  0  0  0  0  0  0  0
  1  2  1  0  0  0  0
  1  7  1  0  0  0  0
  1  8  1  0  0  0  0
  1 14  1  0  0  0  0
  2  3  2  0  0  0  0
  2  9  1  0  0  0  0
  3  4  1  0  0  0  0
  3 10  1  0  0  0  0
  4  5  2  0  0  0  0
  4 11  1  0  0  0  0
  5  6  1  0  0  0  0
  5 12  1  0  0  0  0
  6 13  1  0  0  0  0
  6 14  1  0  0  0  0
  6 15  1  0  0  0  0
 14 16  1  0  0  0  0
 14 17  1  0  0  0  0
M  END
