./005989-27-5.hin
 OpenBabel09251311033D

 26 26  0  0  1  0  0  0  0  0999 V2000
    1.9851    3.9836   -4.1307 C   0  0  0  0  0  0  0  0  0  0  0  0
    1.1626    2.1052   -2.6527 C   0  0  1  0  0  0  0  0  0  0  0  0
    2.5903    1.5874   -2.5089 C   0  0  0  0  0  0  0  0  0  0  0  0
    1.1558    3.6060   -2.9210 C   0  0  0  0  0  0  0  0  0  0  0  0
    3.5854    2.2564   -3.3789 C   0  0  0  0  0  0  0  0  0  0  0  0
    3.3353    3.3558   -4.1049 C   0  0  0  0  0  0  0  0  0  0  0  0
    2.0828    5.1004   -4.1818 H   0  0  0  0  0  0  0  0  0  0  0  0
    1.4580    3.6476   -5.0662 H   0  0  0  0  0  0  0  0  0  0  0  0
    2.6057    0.4823   -2.7125 H   0  0  0  0  0  0  0  0  0  0  0  0
    2.9150    1.7304   -1.4405 H   0  0  0  0  0  0  0  0  0  0  0  0
    1.5626    4.1285   -2.0152 H   0  0  0  0  0  0  0  0  0  0  0  0
    4.5850    1.7921   -3.3811 H   0  0  0  0  0  0  0  0  0  0  0  0
    4.3637    4.0072   -4.9487 C   0  0  0  0  0  0  0  0  0  0  0  0
    0.3638    1.3652   -3.6838 C   0  0  0  0  0  0  0  0  0  0  0  0
    3.9899    4.1148   -5.9976 H   0  0  0  0  0  0  0  0  0  0  0  0
    4.5918    5.0292   -4.5540 H   0  0  0  0  0  0  0  0  0  0  0  0
    5.3129    3.4179   -4.9696 H   0  0  0  0  0  0  0  0  0  0  0  0
    0.8947    0.8519   -4.7971 C   0  0  0  0  0  0  0  0  0  0  0  0
    0.6505    1.9405   -1.6580 H   0  0  0  0  0  0  0  0  0  0  0  0
    0.1002    3.9535   -3.0693 H   0  0  0  0  0  0  0  0  0  0  0  0
    0.2932    0.3133   -5.5403 H   0  0  0  0  0  0  0  0  0  0  0  0
    1.9637    0.9449   -5.0322 H   0  0  0  0  0  0  0  0  0  0  0  0
   -1.0840    1.2398   -3.3765 C   0  0  0  0  0  0  0  0  0  0  0  0
   -1.6459    0.7876   -4.2298 H   0  0  0  0  0  0  0  0  0  0  0  0
   -1.2308    0.5929   -2.4755 H   0  0  0  0  0  0  0  0  0  0  0  0
   -1.5211    2.2463   -3.1583 H   0  0  0  0  0  0  0  0  0  0  0  0
  1  4  1  0  0  0  0
  1  6  1  0  0  0  0
  1  7  1  0  0  0  0
  1  8  1  0  0  0  0
  2  3  1  0  0  0  0
  2  4  1  0  0  0  0
  2 14  1  0  0  0  0
  2 19  1  1  0  0  0
  3  5  1  0  0  0  0
  3  9  1  0  0  0  0
  3 10  1  0  0  0  0
  4 11  1  0  0  0  0
  4 20  1  0  0  0  0
  5  6  2  0  0  0  0
  5 12  1  0  0  0  0
  6 13  1  0  0  0  0
 13 15  1  0  0  0  0
 13 16  1  0  0  0  0
 13 17  1  0  0  0  0
 14 18  2  0  0  0  0
 14 23  1  0  0  0  0
 18 21  1  0  0  0  0
 18 22  1  0  0  0  0
 23 24  1  0  0  0  0
 23 25  1  0  0  0  0
 23 26  1  0  0  0  0
M  END
