./006142-73-0.hin
 OpenBabel09251311033D

 10 10  0  0  0  0  0  0  0  0999 V2000
   -0.6274   -0.6506    0.9003 C   0  0  0  0  0  0  0  0  0  0  0  0
   -0.6274    0.8628    0.9003 C   0  0  0  0  0  0  0  0  0  0  0  0
   -1.0400    0.1061   -0.2864 C   0  0  0  0  0  0  0  0  0  0  0  0
   -1.4699    0.1061   -1.5230 C   0  0  0  0  0  0  0  0  0  0  0  0
   -1.3912   -1.1890    1.4913 H   0  0  0  0  0  0  0  0  0  0  0  0
    0.3383   -1.1890    0.8900 H   0  0  0  0  0  0  0  0  0  0  0  0
    0.3383    1.4012    0.8900 H   0  0  0  0  0  0  0  0  0  0  0  0
   -1.3912    1.4012    1.4913 H   0  0  0  0  0  0  0  0  0  0  0  0
   -1.6625    1.0353   -2.0768 H   0  0  0  0  0  0  0  0  0  0  0  0
   -1.6625   -0.8230   -2.0768 H   0  0  0  0  0  0  0  0  0  0  0  0
  1  2  1  0  0  0  0
  1  3  1  0  0  0  0
  1  5  1  0  0  0  0
  1  6  1  0  0  0  0
  2  3  1  0  0  0  0
  2  7  1  0  0  0  0
  2  8  1  0  0  0  0
  3  4  2  0  0  0  0
  4  9  1  0  0  0  0
  4 10  1  0  0  0  0
M  END
