./006753-98-6.hin
 OpenBabel09251311033D

 39 39  0  0  0  0  0  0  0  0999 V2000
   -1.3682   -1.9235   -1.9144 C   0  0  0  0  0  0  0  0  0  0  0  0
   -0.5382   -0.1490   -3.4320 C   0  0  0  0  0  0  0  0  0  0  0  0
   -1.5628   -1.2652   -3.2715 C   0  0  0  0  0  0  0  0  0  0  0  0
   -2.5866   -3.0690   -4.6826 C   0  0  0  0  0  0  0  0  0  0  0  0
   -3.2810   -3.0092   -5.8302 C   0  0  0  0  0  0  0  0  0  0  0  0
   -4.6078   -3.6646   -6.0289 C   0  0  0  0  0  0  0  0  0  0  0  0
   -1.3421   -2.3142   -4.3882 C   0  0  0  0  0  0  0  0  0  0  0  0
   -2.9422   -0.7139   -3.4456 C   0  0  0  0  0  0  0  0  0  0  0  0
   -3.9319   -0.7431   -2.5475 C   0  0  0  0  0  0  0  0  0  0  0  0
   -5.3481   -0.4758   -2.9352 C   0  0  0  0  0  0  0  0  0  0  0  0
   -5.7983   -1.5087   -3.9293 C   0  0  0  0  0  0  0  0  0  0  0  0
   -6.6603   -1.0156   -5.0248 C   0  0  0  0  0  0  0  0  0  0  0  0
   -5.3568   -2.7709   -3.8083 C   0  0  0  0  0  0  0  0  0  0  0  0
   -5.4697   -3.8716   -4.7906 C   0  0  0  0  0  0  0  0  0  0  0  0
   -2.7920   -2.2529   -7.0136 C   0  0  0  0  0  0  0  0  0  0  0  0
   -1.5286   -1.1824   -1.0949 H   0  0  0  0  0  0  0  0  0  0  0  0
   -0.3302   -2.3261   -1.8276 H   0  0  0  0  0  0  0  0  0  0  0  0
   -2.0902   -2.7654   -1.7853 H   0  0  0  0  0  0  0  0  0  0  0  0
   -0.6923    0.3878   -4.3985 H   0  0  0  0  0  0  0  0  0  0  0  0
   -0.6364    0.5858   -2.5976 H   0  0  0  0  0  0  0  0  0  0  0  0
    0.4947   -0.5720   -3.4178 H   0  0  0  0  0  0  0  0  0  0  0  0
   -2.9542   -3.6826   -3.8425 H   0  0  0  0  0  0  0  0  0  0  0  0
   -4.4441   -4.6624   -6.5206 H   0  0  0  0  0  0  0  0  0  0  0  0
   -5.1997   -3.0344   -6.7509 H   0  0  0  0  0  0  0  0  0  0  0  0
   -0.5382   -3.0268   -4.0627 H   0  0  0  0  0  0  0  0  0  0  0  0
   -0.9694   -1.7858   -5.3053 H   0  0  0  0  0  0  0  0  0  0  0  0
   -3.1370   -0.3474   -4.4704 H   0  0  0  0  0  0  0  0  0  0  0  0
   -3.7720   -1.0566   -1.5049 H   0  0  0  0  0  0  0  0  0  0  0  0
   -5.4440    0.5481   -3.3863 H   0  0  0  0  0  0  0  0  0  0  0  0
   -6.0116   -0.5054   -2.0307 H   0  0  0  0  0  0  0  0  0  0  0  0
   -6.0805   -0.3317   -5.6948 H   0  0  0  0  0  0  0  0  0  0  0  0
   -7.0585   -1.8572   -5.6434 H   0  0  0  0  0  0  0  0  0  0  0  0
   -7.5243   -0.4423   -4.6048 H   0  0  0  0  0  0  0  0  0  0  0  0
   -4.7777   -3.0386   -2.9040 H   0  0  0  0  0  0  0  0  0  0  0  0
   -6.5366   -3.9971   -5.1218 H   0  0  0  0  0  0  0  0  0  0  0  0
   -5.1690   -4.8331   -4.2924 H   0  0  0  0  0  0  0  0  0  0  0  0
   -1.7193   -2.4903   -7.2231 H   0  0  0  0  0  0  0  0  0  0  0  0
   -3.3828   -2.5007   -7.9295 H   0  0  0  0  0  0  0  0  0  0  0  0
   -2.8783   -1.1524   -6.8282 H   0  0  0  0  0  0  0  0  0  0  0  0
  1  3  1  0  0  0  0
  1 16  1  0  0  0  0
  1 17  1  0  0  0  0
  1 18  1  0  0  0  0
  2  3  1  0  0  0  0
  2 19  1  0  0  0  0
  2 20  1  0  0  0  0
  2 21  1  0  0  0  0
  3  7  1  0  0  0  0
  3  8  1  0  0  0  0
  4  5  2  0  0  0  0
  4  7  1  0  0  0  0
  4 22  1  0  0  0  0
  5  6  1  0  0  0  0
  5 15  1  0  0  0  0
  6 14  1  0  0  0  0
  6 23  1  0  0  0  0
  6 24  1  0  0  0  0
  7 25  1  0  0  0  0
  7 26  1  0  0  0  0
  8  9  2  0  0  0  0
  8 27  1  0  0  0  0
  9 10  1  0  0  0  0
  9 28  1  0  0  0  0
 10 11  1  0  0  0  0
 10 29  1  0  0  0  0
 10 30  1  0  0  0  0
 11 12  1  0  0  0  0
 11 13  2  0  0  0  0
 12 31  1  0  0  0  0
 12 32  1  0  0  0  0
 12 33  1  0  0  0  0
 13 14  1  0  0  0  0
 13 34  1  0  0  0  0
 14 35  1  0  0  0  0
 14 36  1  0  0  0  0
 15 37  1  0  0  0  0
 15 38  1  0  0  0  0
 15 39  1  0  0  0  0
M  END
