./015877-57-3.hin
 OpenBabel09251311033D

 19 18  0  0  1  0  0  0  0  0999 V2000
    1.7405   -1.9719    0.8613 C   0  0  0  0  0  0  0  0  0  0  0  0
    1.6914   -0.4989    0.5478 C   0  0  0  0  0  0  0  0  0  0  0  0
    0.2757    0.0614    0.5741 C   0  0  1  0  0  0  0  0  0  0  0  0
    0.3144    1.5706    0.7074 C   0  0  0  0  0  0  0  0  0  0  0  0
   -0.4868   -0.3405   -0.6783 C   0  0  0  0  0  0  0  0  0  0  0  0
   -1.9413    0.0043   -0.5906 C   0  0  0  0  0  0  0  0  0  0  0  0
   -2.6338    0.2450   -1.5803 O   0  0  0  0  0  0  0  0  0  0  0  0
    2.7999   -2.3265    0.8712 H   0  0  0  0  0  0  0  0  0  0  0  0
    1.2911   -2.1792    1.8626 H   0  0  0  0  0  0  0  0  0  0  0  0
    1.1817   -2.5648    0.0974 H   0  0  0  0  0  0  0  0  0  0  0  0
    2.3130    0.0560    1.3008 H   0  0  0  0  0  0  0  0  0  0  0  0
    2.1465   -0.3099   -0.4601 H   0  0  0  0  0  0  0  0  0  0  0  0
   -0.2583   -0.3629    1.4718 H   0  0  0  0  0  0  0  0  0  0  0  0
   -0.7216    1.9880    0.6858 H   0  0  0  0  0  0  0  0  0  0  0  0
    0.7956    1.8639    1.6712 H   0  0  0  0  0  0  0  0  0  0  0  0
    0.8960    2.0239   -0.1311 H   0  0  0  0  0  0  0  0  0  0  0  0
   -0.0315    0.1497   -1.5792 H   0  0  0  0  0  0  0  0  0  0  0  0
   -0.4105   -1.4520   -0.8282 H   0  0  0  0  0  0  0  0  0  0  0  0
   -2.3732    0.0175    0.4362 H   0  0  0  0  0  0  0  0  0  0  0  0
  1  2  1  0  0  0  0
  1  8  1  0  0  0  0
  1  9  1  0  0  0  0
  1 10  1  0  0  0  0
  2  3  1  0  0  0  0
  2 11  1  0  0  0  0
  2 12  1  0  0  0  0
  3  4  1  0  0  0  0
  3  5  1  0  0  0  0
  3 13  1  1  0  0  0
  4 14  1  0  0  0  0
  4 15  1  0  0  0  0
  4 16  1  0  0  0  0
  5  6  1  0  0  0  0
  5 17  1  0  0  0  0
  5 18  1  0  0  0  0
  6  7  2  0  0  0  0
  6 19  1  0  0  0  0
M  END
