./024903-95-5.hin
 OpenBabel09251311033D

 24 25  0  0  1  0  0  0  0  0999 V2000
   -2.3995   -1.8535   -0.4340 C   0  0  0  0  0  0  0  0  0  0  0  0
   -1.6843   -1.0926    0.6463 C   0  0  0  0  0  0  0  0  0  0  0  0
   -2.1610   -1.5651    1.9995 C   0  0  0  0  0  0  0  0  0  0  0  0
   -1.6630    0.4748    0.5514 C   0  0  1  0  0  0  0  0  0  0  0  0
   -0.1192   -0.9957    0.5754 C   0  0  2  0  0  0  0  0  0  0  0  0
   -0.2192    0.4529    1.1301 C   0  0  0  0  0  0  0  0  0  0  0  0
   -1.5355    0.8506   -0.9024 C   0  0  0  0  0  0  0  0  0  0  0  0
   -0.3329    0.2558   -1.6053 C   0  0  0  0  0  0  0  0  0  0  0  0
    0.3283   -0.9087   -0.8711 C   0  0  0  0  0  0  0  0  0  0  0  0
   -2.3270    1.5989   -1.4803 O   0  0  0  0  0  0  0  0  0  0  0  0
   -3.5040   -1.8097   -0.2649 H   0  0  0  0  0  0  0  0  0  0  0  0
   -2.1919   -1.4444   -1.4520 H   0  0  0  0  0  0  0  0  0  0  0  0
   -2.0808   -2.9248   -0.4154 H   0  0  0  0  0  0  0  0  0  0  0  0
   -1.9867   -2.6638    2.1018 H   0  0  0  0  0  0  0  0  0  0  0  0
   -1.6201   -1.0435    2.8250 H   0  0  0  0  0  0  0  0  0  0  0  0
   -3.2543   -1.3648    2.1124 H   0  0  0  0  0  0  0  0  0  0  0  0
   -2.4439    1.0262    1.1046 H   0  0  0  0  0  0  0  0  0  0  0  0
    0.4432   -1.7348    1.1744 H   0  0  0  0  0  0  0  0  0  0  0  0
   -0.1904    0.5134    2.2379 H   0  0  0  0  0  0  0  0  0  0  0  0
    0.4892    1.1852    0.6943 H   0  0  0  0  0  0  0  0  0  0  0  0
    0.4100    1.0885   -1.7370 H   0  0  0  0  0  0  0  0  0  0  0  0
   -0.6430   -0.0696   -2.6332 H   0  0  0  0  0  0  0  0  0  0  0  0
    1.4415   -0.7798   -0.9063 H   0  0  0  0  0  0  0  0  0  0  0  0
    0.0873   -1.8721   -1.3917 H   0  0  0  0  0  0  0  0  0  0  0  0
  1  2  1  0  0  0  0
  1 11  1  0  0  0  0
  1 12  1  0  0  0  0
  1 13  1  0  0  0  0
  2  3  1  0  0  0  0
  2  4  1  0  0  0  0
  2  5  1  0  0  0  0
  3 14  1  0  0  0  0
  3 15  1  0  0  0  0
  3 16  1  0  0  0  0
  4  6  1  0  0  0  0
  4  7  1  0  0  0  0
  4 17  1  1  0  0  0
  5  6  1  0  0  0  0
  5  9  1  0  0  0  0
  5 18  1  1  0  0  0
  6 19  1  0  0  0  0
  6 20  1  0  0  0  0
  7  8  1  0  0  0  0
  7 10  2  0  0  0  0
  8  9  1  0  0  0  0
  8 21  1  0  0  0  0
  8 22  1  0  0  0  0
  9 23  1  0  0  0  0
  9 24  1  0  0  0  0
M  END
