./001888-90-0.hin
 OpenBabel09251311033D

 17 17  0  0  0  0  0  0  0  0999 V2000
   -1.7859   -0.5316    0.6448 C   0  0  0  0  0  0  0  0  0  0  0  0
   -1.7405    0.9410    0.8116 C   0  0  0  0  0  0  0  0  0  0  0  0
   -0.3363    1.4905    0.6490 C   0  0  0  0  0  0  0  0  0  0  0  0
    0.3577    0.9083   -0.5667 C   0  0  0  0  0  0  0  0  0  0  0  0
    0.3553   -0.5850   -0.5546 C   0  0  0  0  0  0  0  0  0  0  0  0
   -0.8238   -1.2225    0.0171 C   0  0  0  0  0  0  0  0  0  0  0  0
    1.3707   -1.2970   -1.0609 C   0  0  0  0  0  0  0  0  0  0  0  0
   -2.6713   -1.0361    1.0610 H   0  0  0  0  0  0  0  0  0  0  0  0
   -2.1356    1.2214    1.8243 H   0  0  0  0  0  0  0  0  0  0  0  0
   -2.4215    1.4097    0.0490 H   0  0  0  0  0  0  0  0  0  0  0  0
    0.2634    1.2530    1.5667 H   0  0  0  0  0  0  0  0  0  0  0  0
   -0.3788    2.6066    0.5541 H   0  0  0  0  0  0  0  0  0  0  0  0
    1.4099    1.2951   -0.6144 H   0  0  0  0  0  0  0  0  0  0  0  0
   -0.1692    1.2553   -1.4974 H   0  0  0  0  0  0  0  0  0  0  0  0
   -0.8870   -2.3178   -0.0889 H   0  0  0  0  0  0  0  0  0  0  0  0
    2.2628   -0.8225   -1.4880 H   0  0  0  0  0  0  0  0  0  0  0  0
    1.3682   -2.3940   -1.0766 H   0  0  0  0  0  0  0  0  0  0  0  0
  1  2  1  0  0  0  0
  1  6  2  0  0  0  0
  1  8  1  0  0  0  0
  2  3  1  0  0  0  0
  2  9  1  0  0  0  0
  2 10  1  0  0  0  0
  3  4  1  0  0  0  0
  3 11  1  0  0  0  0
  3 12  1  0  0  0  0
  4  5  1  0  0  0  0
  4 13  1  0  0  0  0
  4 14  1  0  0  0  0
  5  6  1  0  0  0  0
  5  7  2  0  0  0  0
  6 15  1  0  0  0  0
  7 16  1  0  0  0  0
  7 17  1  0  0  0  0
M  END
