./XXXUNK-05-1.hin
 OpenBabel09251311033D

 22 22  0  0  1  0  0  0  0  0999 V2000
   -1.4237    0.0251   -0.5816 C   0  0  0  0  0  0  0  0  0  0  0  0
   -1.4027    1.5052   -0.6407 C   0  0  0  0  0  0  0  0  0  0  0  0
    0.0034    2.0675   -0.5767 C   0  0  0  0  0  0  0  0  0  0  0  0
    0.8202    1.3584    0.4807 C   0  0  0  0  0  0  0  0  0  0  0  0
    0.9363   -0.1334    0.1882 C   0  0  2  0  0  0  0  0  0  0  0  0
   -0.3840   -0.7291   -0.1924 C   0  0  0  0  0  0  0  0  0  0  0  0
   -0.4720   -2.2092   -0.1598 C   0  0  0  0  0  0  0  0  0  0  0  0
    1.5613   -0.8365    1.3771 C   0  0  0  0  0  0  0  0  0  0  0  0
   -2.3783   -0.4410   -0.8751 H   0  0  0  0  0  0  0  0  0  0  0  0
   -2.0091    1.9066    0.2174 H   0  0  0  0  0  0  0  0  0  0  0  0
   -1.9010    1.8506   -1.5861 H   0  0  0  0  0  0  0  0  0  0  0  0
   -0.0393    3.1643   -0.3503 H   0  0  0  0  0  0  0  0  0  0  0  0
    0.5011    1.9492   -1.5749 H   0  0  0  0  0  0  0  0  0  0  0  0
    0.3411    1.5047    1.4842 H   0  0  0  0  0  0  0  0  0  0  0  0
    1.8476    1.8041    0.5291 H   0  0  0  0  0  0  0  0  0  0  0  0
    1.6218   -0.2647   -0.7007 H   0  0  0  0  0  0  0  0  0  0  0  0
   -0.4602   -2.5711    0.8994 H   0  0  0  0  0  0  0  0  0  0  0  0
   -1.4108   -2.5739   -0.6444 H   0  0  0  0  0  0  0  0  0  0  0  0
    0.4005   -2.6616   -0.6937 H   0  0  0  0  0  0  0  0  0  0  0  0
    0.8624   -0.8360    2.2476 H   0  0  0  0  0  0  0  0  0  0  0  0
    1.8097   -1.8947    1.1221 H   0  0  0  0  0  0  0  0  0  0  0  0
    2.5021   -0.3145    1.6771 H   0  0  0  0  0  0  0  0  0  0  0  0
  1  2  1  0  0  0  0
  1  6  2  0  0  0  0
  1  9  1  0  0  0  0
  2  3  1  0  0  0  0
  2 10  1  0  0  0  0
  2 11  1  0  0  0  0
  3  4  1  0  0  0  0
  3 12  1  0  0  0  0
  3 13  1  0  0  0  0
  4  5  1  0  0  0  0
  4 14  1  0  0  0  0
  4 15  1  0  0  0  0
  5  6  1  0  0  0  0
  5  8  1  0  0  0  0
  5 16  1  6  0  0  0
  6  7  1  0  0  0  0
  7 17  1  0  0  0  0
  7 18  1  0  0  0  0
  7 19  1  0  0  0  0
  8 20  1  0  0  0  0
  8 21  1  0  0  0  0
  8 22  1  0  0  0  0
M  END
