./XXXUNK-05-2.hin
 OpenBabel09251311033D

 28 28  0  0  1  0  0  0  0  0999 V2000
    0.7365    0.3055    2.7242 C   0  0  0  0  0  0  0  0  0  0  0  0
   -0.2223    0.3403    1.5734 C   0  0  0  0  0  0  0  0  0  0  0  0
   -1.4799    1.0777    1.9011 C   0  0  0  0  0  0  0  0  0  0  0  0
   -0.2601   -0.8715    0.6656 C   0  0  2  0  0  0  0  0  0  0  0  0
    0.3752    0.4085    0.1816 C   0  0  1  0  0  0  0  0  0  0  0  0
   -1.5514   -1.3793    0.1144 C   0  0  0  0  0  0  0  0  0  0  0  0
   -1.4345   -2.7351   -0.5292 C   0  0  0  0  0  0  0  0  0  0  0  0
   -2.5866   -3.1057   -1.4087 C   0  0  0  0  0  0  0  0  0  0  0  0
   -0.4793   -3.4949   -0.3442 O   0  0  0  0  0  0  0  0  0  0  0  0
   -0.2301    1.2260   -0.9102 C   0  0  0  0  0  0  0  0  0  0  0  0
    0.5340    2.4944   -1.1535 C   0  0  0  0  0  0  0  0  0  0  0  0
   -0.0019    3.5221   -1.5689 O   0  0  0  0  0  0  0  0  0  0  0  0
    0.9862    1.3458    3.0466 H   0  0  0  0  0  0  0  0  0  0  0  0
    1.6835   -0.2174    2.4451 H   0  0  0  0  0  0  0  0  0  0  0  0
    0.2779   -0.2340    3.5889 H   0  0  0  0  0  0  0  0  0  0  0  0
   -1.2688    2.1712    1.9964 H   0  0  0  0  0  0  0  0  0  0  0  0
   -2.2615    0.9351    1.1158 H   0  0  0  0  0  0  0  0  0  0  0  0
   -1.8940    0.7113    2.8731 H   0  0  0  0  0  0  0  0  0  0  0  0
    0.4373   -1.7039    0.9143 H   0  0  0  0  0  0  0  0  0  0  0  0
    1.4868    0.4028    0.1248 H   0  0  0  0  0  0  0  0  0  0  0  0
   -2.2996   -1.4697    0.9509 H   0  0  0  0  0  0  0  0  0  0  0  0
   -1.9770   -0.6630   -0.6387 H   0  0  0  0  0  0  0  0  0  0  0  0
   -2.5469   -4.1891   -1.6781 H   0  0  0  0  0  0  0  0  0  0  0  0
   -3.5519   -2.8931   -0.8893 H   0  0  0  0  0  0  0  0  0  0  0  0
   -2.5451   -2.5009   -2.3478 H   0  0  0  0  0  0  0  0  0  0  0  0
   -0.2129    0.6339   -1.8678 H   0  0  0  0  0  0  0  0  0  0  0  0
   -1.3027    1.4758   -0.6913 H   0  0  0  0  0  0  0  0  0  0  0  0
    1.6275    2.4491   -0.9497 H   0  0  0  0  0  0  0  0  0  0  0  0
  1  2  1  0  0  0  0
  1 13  1  0  0  0  0
  1 14  1  0  0  0  0
  1 15  1  0  0  0  0
  2  3  1  0  0  0  0
  2  4  1  0  0  0  0
  2  5  1  0  0  0  0
  3 16  1  0  0  0  0
  3 17  1  0  0  0  0
  3 18  1  0  0  0  0
  4  5  1  0  0  0  0
  4  6  1  0  0  0  0
  4 19  1  1  0  0  0
  5 10  1  0  0  0  0
  5 20  1  6  0  0  0
  6  7  1  0  0  0  0
  6 21  1  0  0  0  0
  6 22  1  0  0  0  0
  7  8  1  0  0  0  0
  7  9  2  0  0  0  0
  8 23  1  0  0  0  0
  8 24  1  0  0  0  0
  8 25  1  0  0  0  0
 10 11  1  0  0  0  0
 10 26  1  0  0  0  0
 10 27  1  0  0  0  0
 11 12  2  0  0  0  0
 11 28  1  0  0  0  0
M  END
