1


 32 33  0  0  0  0  0  0  0  0999 V2000
    6.2034   -6.2841    0.0000 C   0  0  0  0  0  0  0  0  0  0  0  0
    6.7688   -7.4888    0.0000 C   0  0  0  0  0  0  0  0  0  0  0  0
    8.9930   -6.5275    0.0000 C   0  0  0  0  0  0  0  0  0  0  0  0
    8.3746   -5.1961    0.0000 C   0  0  0  0  0  0  0  0  0  0  0  0
    8.2236   -7.6147    0.0000 C   0  0  0  0  0  0  0  0  0  0  0  0
    7.0451   -5.0814    0.0000 C   0  0  0  0  0  0  0  0  0  0  0  0
    4.8084   -6.1761    0.0000 N   0  0  0  0  0  0  0  0  0  0  0  0
   10.3890   -6.6757    0.0000 N   0  0  0  0  0  0  0  0  0  0  0  0
    4.1837   -4.8845    0.0000 C   0  0  0  0  0  0  0  0  0  0  0  0
    3.9990   -7.3628    0.0000 C   0  0  0  0  0  0  0  0  0  0  0  0
   11.1307   -5.7186    0.0000 N   0  0  0  0  0  0  0  0  0  0  0  0
   12.5180   -5.9314    0.0000 C   0  0  0  0  0  0  0  0  0  0  0  0
   12.9956   -7.1753    0.0000 C   0  0  0  0  0  0  0  0  0  0  0  0
   15.2808   -6.3760    0.0000 C   0  0  0  0  0  0  0  0  0  0  0  0
   14.7587   -5.0092    0.0000 C   0  0  0  0  0  0  0  0  0  0  0  0
   14.4403   -7.4082    0.0000 C   0  0  0  0  0  0  0  0  0  0  0  0
   13.4432   -4.7961    0.0000 C   0  0  0  0  0  0  0  0  0  0  0  0
    6.1966   -8.3089   -0.0180 H   0  0  0  0  0  0  0  0  0  0  0  0
    8.9483   -4.3771    0.0067 H   0  0  0  0  0  0  0  0  0  0  0  0
    8.6445   -8.5218   -0.0224 H   0  0  0  0  0  0  0  0  0  0  0  0
    6.6219   -4.1755    0.0123 H   0  0  0  0  0  0  0  0  0  0  0  0
    3.1898   -4.9945    0.0184 H   0  0  0  0  0  0  0  0  0  0  0  0
    4.4593   -4.3747   -0.8000 H   0  0  0  0  0  0  0  0  0  0  0  0
    4.4659   -4.3829    0.8328 H   0  0  0  0  0  0  0  0  0  0  0  0
    3.0323   -7.1075    0.0094 H   0  0  0  0  0  0  0  0  0  0  0  0
    4.2037   -7.9074    0.8178 H   0  0  0  0  0  0  0  0  0  0  0  0
    4.1970   -7.9008   -0.8150 H   0  0  0  0  0  0  0  0  0  0  0  0
   12.3652   -7.9515   -0.0332 H   0  0  0  0  0  0  0  0  0  0  0  0
   16.2682   -6.5346   -0.0045 H   0  0  0  0  0  0  0  0  0  0  0  0
   15.3901   -4.2339    0.0384 H   0  0  0  0  0  0  0  0  0  0  0  0
   14.7962   -8.3426   -0.0371 H   0  0  0  0  0  0  0  0  0  0  0  0
   13.0879   -3.8615    0.0418 H   0  0  0  0  0  0  0  0  0  0  0  0
  1  2  2  0  0  0  0
  3  4  1  0  0  0  0
  1  6  1  0  0  0  0
  2  5  1  0  0  0  0
  5  3  2  0  0  0  0
  4  6  2  0  0  0  0
  1  7  1  0  0  0  0
  3  8  1  0  0  0  0
  7  9  1  0  0  0  0
  7 10  1  0  0  0  0
  8 11  2  0  0  0  0
 11 12  1  0  0  0  0
 12 13  2  0  0  0  0
 14 15  1  0  0  0  0
 12 17  1  0  0  0  0
 13 16  1  0  0  0  0
 16 14  2  0  0  0  0
 15 17  2  0  0  0  0
  2 18  1  0  0  0  0
  4 19  1  0  0  0  0
  5 20  1  0  0  0  0
  6 21  1  0  0  0  0
  9 22  1  0  0  0  0
  9 23  1  0  0  0  0
  9 24  1  0  0  0  0
 10 25  1  0  0  0  0
 10 26  1  0  0  0  0
 10 27  1  0  0  0  0
 13 28  1  0  0  0  0
 14 29  1  0  0  0  0
 15 30  1  0  0  0  0
 16 31  1  0  0  0  0
 17 32  1  0  0  0  0
M  END
>  <Substance ID> (1)
1

>  <Mouse_Female_Canc> (1)
1

>  <SAL> (1)
3

>  <Rat_Male_Canc> (1)
ND

>  <TD50_Rat> (1)
3.31

>  <TD50_Mouse> (1)
ND

>  <Rat_Female_Canc> (1)
3

>  <Canc> (1)
3

>  <MolWeight> (1)
225.3

>  <Mouse_Male_Canc> (1)
3

>  <Mouse_Male_NTP> (1)
ND

>  <ChemName> (1)
4-Dimethylaminoazobenzene

>  <Rat_Male_NTP> (1)
ND

>  <Reference> (1)
Toxnet

>  <Formula> (1)
C14H15N3 

>  <SMILES> (1)
CN(C1=CC=C(C=C1)N=N/C2=CC=CC=C2)C

>  <Rat_Female_NTP> (1)
ND

>  <CAS> (1)
60-11-7

>  <Mouse_Female_NTP> (1)
ND

>  <Synonyms> (1)
Solvent Yellow 2; Butter Yellow; Methyl yellow; DAB; Oil Yellow; N,N-dimethyl-4-aminoazobenzene; N,N-dimethyl-4-(phenylazo)benzenamine; Dimethylaminoazobenzene; yellow g soluble in grease; stear yellow jb; sudan gg; sudan yellow; sudan yellow gg; sudan yellow gga; toyo oil yellow g; waxoline yellow ad; waxoline yellow ads; oil yellow g; oil yellow 2g; oil yellow g-2; oil yellow gg; oil yellow gr; oil yellow n; oil yellow pel; oleal yellow 2g; organol yellow adm; orient oil yellow gg; P.D.A.B.; petrol yellow wt; resinol yellow gr; resoform yellow gga; silotras yellow t2g; somalia yellow a; benzeneazodimethylaniline; C.I. solvent yellow 2; 4-(N,N-dimethylamino)azobenzene; dimethylaminoazobenzol; 4-dimethylaminoazobenzol; 4-dimethylaminophenylazobenzene; N,N-dimethyl-p-azoaniline; N,N-dimethyl-4-(phenylazo)benzamine; atul fast yellow r; brilliant fast oil yellow; brilliant fast spirit yellow; cerasine yellow gg; C.I. 11020; dab (carcinogen); dimethyl yellow; dimethyl yellow analar; dimethyl yellow N,N-dimethylaniline; DMAB; enial yellow 2g; fast oil yellow b; fast yellow; fat yellow; fat yellow a; fat yellow ad oo; fat yellow es; fat yellow r; fat yellow r (8186); grasal brilliant yellow; oil yellow ii; oil yellow 20; oil yellow 2625; oil yellow 7463; oil yellow bb; oil yellow d; oil yellow dn; oil yellow ff; oil yellow fn.

$$$$
2


 30 32  0  0  0  0  0  0  0  0999 V2000
    7.2871  -25.6386    0.0000 C   0  0  0  0  0  0  0  0  0  0  0  0
    6.6787  -27.0033    0.0000 C   0  0  0  0  0  0  0  0  0  0  0  0
    7.4587  -28.0858    0.0000 C   0  0  0  0  0  0  0  0  0  0  0  0
    8.6178  -25.4838    0.0000 C   0  0  0  0  0  0  0  0  0  0  0  0
    9.4357  -26.6822    0.0000 C   0  0  0  0  0  0  0  0  0  0  0  0
    8.8941  -27.8882    0.0000 C   0  0  0  0  0  0  0  0  0  0  0  0
    9.9290  -28.9936    0.0000 C   0  0  0  0  0  0  0  0  0  0  0  0
   10.8821  -26.8162    0.0000 C   0  0  0  0  0  0  0  0  0  0  0  0
   11.1664  -28.1088    0.0000 C   0  0  0  0  0  0  0  0  0  0  0  0
   12.5214  -28.5947    0.0000 C   0  0  0  0  0  0  0  0  0  0  0  0
   13.5085  -27.7050    0.0000 C   0  0  0  0  0  0  0  0  0  0  0  0
   13.2124  -26.2626    0.0000 C   0  0  0  0  0  0  0  0  0  0  0  0
   11.9633  -25.7849    0.0000 C   0  0  0  0  0  0  0  0  0  0  0  0
   11.6653  -24.3457    0.0000 N   0  0  0  0  0  0  0  0  0  0  0  0
   10.7071  -24.0861    0.0004 H   0  0  0  0  0  0  0  0  0  0  0  0
   12.6509  -23.2280    0.0000 C   0  0  0  0  0  0  0  0  0  0  0  0
   14.1754  -23.3578    0.0000 C   0  0  0  0  0  0  0  0  0  0  0  0
   12.2024  -22.0777    0.0000 O   0  0  0  0  0  0  0  0  0  0  0  0
    6.6950  -24.8327    0.0018 H   0  0  0  0  0  0  0  0  0  0  0  0
    5.6840  -27.1057    0.0037 H   0  0  0  0  0  0  0  0  0  0  0  0
    7.0649  -29.0049   -0.0009 H   0  0  0  0  0  0  0  0  0  0  0  0
    9.0329  -24.5740   -0.0042 H   0  0  0  0  0  0  0  0  0  0  0  0
    9.8722  -29.5695    0.8120 H   0  0  0  0  0  0  0  0  0  0  0  0
    9.8719  -29.5664   -0.8213 H   0  0  0  0  0  0  0  0  0  0  0  0
   12.7147  -29.5758   -0.0029 H   0  0  0  0  0  0  0  0  0  0  0  0
   14.4586  -28.0171   -0.0048 H   0  0  0  0  0  0  0  0  0  0  0  0
   13.9746  -25.6154   -0.0065 H   0  0  0  0  0  0  0  0  0  0  0  0
   14.5879  -22.4470    0.0104 H   0  0  0  0  0  0  0  0  0  0  0  0
   14.4695  -23.8543   -0.8088 H   0  0  0  0  0  0  0  0  0  0  0  0
   14.4665  -23.8572    0.8240 H   0  0  0  0  0  0  0  0  0  0  0  0
  1  2  1  0  0  0  0
  2  3  2  0  0  0  0
  3  6  1  0  0  0  0
  5  4  1  0  0  0  0
  4  1  2  0  0  0  0
  5  6  2  0  0  0  0
  6  7  1  0  0  0  0
  7  9  1  0  0  0  0
  8  5  1  0  0  0  0
  8  9  2  0  0  0  0
  9 10  1  0  0  0  0
 10 11  2  0  0  0  0
 11 12  1  0  0  0  0
 12 13  2  0  0  0  0
 13  8  1  0  0  0  0
 13 14  1  0  0  0  0
 14 15  1  0  0  0  0
 14 16  1  0  0  0  0
 16 17  1  0  0  0  0
 16 18  2  0  0  0  0
  1 19  1  0  0  0  0
  2 20  1  0  0  0  0
  3 21  1  0  0  0  0
  4 22  1  0  0  0  0
  7 23  1  0  0  0  0
  7 24  1  0  0  0  0
 10 25  1  0  0  0  0
 11 26  1  0  0  0  0
 12 27  1  0  0  0  0
 17 28  1  0  0  0  0
 17 29  1  0  0  0  0
 17 30  1  0  0  0  0 
M  END
>  <Substance ID> (2)
2

>  <Mouse_Female_Canc> (2)
ND

>  <SAL> (2)
3

>  <Rat_Male_Canc> (2)
ND

>  <TD50_Rat> (2)
NP

>  <TD50_Mouse> (2)
ND

>  <Rat_Female_Canc> (2)
1

>  <Canc> (2)
1

>  <MolWeight> (2)
223.28

>  <Mouse_Male_Canc> (2)
ND

>  <Mouse_Male_NTP> (2)
ND

>  <ChemName> (2)
4-Acetylaminofluorene

>  <Rat_Male_NTP> (2)
ND

>  <Reference> (2)
CPDB

>  <Formula> (2)
C15H13NO

>  <SMILES> (2)
O=C(Nc3c2c1ccccc1Cc2ccc3)C

>  <Rat_Female_NTP> (2)
ND

>  <CAS> (2)
28322-02-3

>  <Mouse_Female_NTP> (2)
ND

>  <Synonyms> (2)
4-AAF; 4-acetamidofluorene; N-4-fluorenylacetamide; N-9H-fluoren-4-ylacetamide; N-fluoren-4-ylacetamide.

$$$$
3


 26 29  0  0  0  0  0  0  0  0999 V2000
    5.4442  -51.9513    0.0003 C   0  0  0  0  0  0  0  0  0  0  0  0
    6.7317  -52.6797    0.0000 C   0  0  0  0  0  0  0  0  0  0  0  0
    5.4048  -50.6171   -0.0000 C   0  0  0  0  0  0  0  0  0  0  0  0
    6.6470  -49.8575    0.0002 C   0  0  0  0  0  0  0  0  0  0  0  0
    7.9072  -47.7901   -0.0005 C   0  0  0  0  0  0  0  0  0  0  0  0
    6.6370  -48.5250    0.0000 C   0  0  0  0  0  0  0  0  0  0  0  0
    7.8932  -52.0236   -0.0000 C   0  0  0  0  0  0  0  0  0  0  0  0
    9.1615  -52.7580   -0.0000 C   0  0  0  0  0  0  0  0  0  0  0  0
   10.3159  -52.0905    0.0006 C   0  0  0  0  0  0  0  0  0  0  0  0
    7.9018  -50.5728    0.0004 C   0  0  0  0  0  0  0  0  0  0  0  0
    9.0513  -49.9081    0.0002 C   0  0  0  0  0  0  0  0  0  0  0  0
   10.3123  -50.6244    0.0003 C   0  0  0  0  0  0  0  0  0  0  0  0
   11.4603  -49.9455    0.0007 C   0  0  0  0  0  0  0  0  0  0  0  0
   11.4710  -48.4658    0.0003 C   0  0  0  0  0  0  0  0  0  0  0  0
   10.3345  -47.7663   -0.0007 C   0  0  0  0  0  0  0  0  0  0  0  0
    9.0569  -48.4637   -0.0003 C   0  0  0  0  0  0  0  0  0  0  0  0
    4.5879  -52.4678    0.0008 H   0  0  0  0  0  0  0  0  0  0  0  0
    6.7313  -53.6797   -0.0001 H   0  0  0  0  0  0  0  0  0  0  0  0
    4.5254  -50.1410   -0.0005 H   0  0  0  0  0  0  0  0  0  0  0  0
    7.9099  -46.7901   -0.0011 H   0  0  0  0  0  0  0  0  0  0  0  0
    5.7688  -48.0286    0.0002 H   0  0  0  0  0  0  0  0  0  0  0  0
    9.1612  -53.7580   -0.0004 H   0  0  0  0  0  0  0  0  0  0  0  0
   11.1827  -52.5892    0.0012 H   0  0  0  0  0  0  0  0  0  0  0  0
   12.3271  -50.4441    0.0013 H   0  0  0  0  0  0  0  0  0  0  0  0
   12.3457  -47.9812    0.0007 H   0  0  0  0  0  0  0  0  0  0  0  0
   10.3605  -46.7666   -0.0016 H   0  0  0  0  0  0  0  0  0  0  0  0
  1  2  1  0  0  0  0
  2  7  2  0  0  0  0
  4  3  1  0  0  0  0
  3  1  2  0  0  0  0
  4 10  1  0  0  0  0
 16  5  2  0  0  0  0
  5  6  1  0  0  0  0
  6  4  2  0  0  0  0
  7  8  1  0  0  0  0
  8  9  2  0  0  0  0
  9 12  1  0  0  0  0
 11 10  2  0  0  0  0
 10  7  1  0  0  0  0
 11 12  1  0  0  0  0
 12 13  2  0  0  0  0
 13 14  1  0  0  0  0
 14 15  2  0  0  0  0
 15 16  1  0  0  0  0
 16 11  1  0  0  0  0
  1 17  1  0  0  0  0
  2 18  1  0  0  0  0
  3 19  1  0  0  0  0
  5 20  1  0  0  0  0
  6 21  1  0  0  0  0
  8 22  1  0  0  0  0
  9 23  1  0  0  0  0
 13 24  1  0  0  0  0
 14 25  1  0  0  0  0
 15 26  1  0  0  0  0
M  END
>  <Substance ID> (3)
3

>  <Mouse_Female_Canc> (3)
1

>  <SAL> (3)
3

>  <Rat_Male_Canc> (3)
ND

>  <TD50_Rat> (3)
ND

>  <TD50_Mouse> (3)
NP

>  <Rat_Female_Canc> (3)
ND

>  <Canc> (3)
1

>  <MolWeight> (3)
202.26

>  <Mouse_Male_Canc> (3)
1

>  <Mouse_Male_NTP> (3)
ND

>  <ChemName> (3)
Pyrene

>  <Rat_Male_NTP> (3)
ND

>  <Reference> (3)
Toxnet

>  <Formula> (3)
C16H10 

>  <SMILES> (3)
c(c(c(cc1)ccc2)c2cc3)(c1ccc4)c34

>  <Rat_Female_NTP> (3)
ND

>  <CAS> (3)
129-00-0

>  <Mouse_Female_NTP> (3)
ND

>  <Synonyms> (3)
Benzo[def]phenanthrene; beta-pyrene; Pyrene[def]phenanthrene. 

$$$$
4


  5  4  0  0  0  0  0  0  0  0999 V2000
    5.6984  -60.3019   -0.0707 C   0  0  0  0  0  0  0  0  0  0  0  0
    6.7779  -59.4491    1.0383 Cl  0  0  0  0  0  0  0  0  0  0  0  0
    5.1173  -59.5706   -0.6516 H   0  0  0  0  0  0  0  0  0  0  0  0
    4.5970  -61.3294    0.8532 Cl  0  0  0  0  0  0  0  0  0  0  0  0
    6.6540  -61.3020   -1.1703 Cl  0  0  0  0  0  0  0  0  0  0  0  0
  1  2  1  0  0  0  0
  1  3  1  0  0  0  0
  1  4  1  0  0  0  0
  1  5  1  0  0  0  0
M  END
>  <Substance ID> (4)
4

>  <Mouse_Female_Canc> (4)
3

>  <SAL> (4)
1

>  <Rat_Male_Canc> (4)
3

>  <TD50_Rat> (4)
262

>  <TD50_Mouse> (4)
90.3

>  <Rat_Female_Canc> (4)
3

>  <Canc> (4)
3

>  <MolWeight> (4)
119.38

>  <Mouse_Male_Canc> (4)
3

>  <Mouse_Male_NTP> (4)
ND

>  <ChemName> (4)
Chloroform

>  <Rat_Male_NTP> (4)
ND

>  <Reference> (4)
CPDB

>  <Formula> (4)
CHCl3 

>  <SMILES> (4)
ClC(Cl)Cl

>  <Rat_Female_NTP> (4)
ND

>  <CAS> (4)
67-66-3

>  <Mouse_Female_NTP> (4)
ND

>  <Synonyms> (4)
Formyl trichloride; methane trichloride; methenyl trichloride; Methyl trichloride; R 20; r 20 (refrigerant); Refrigerant R20; trichloroform; Trichloromethane.

$$$$
5


 40 41  0  0  0  0  0  0  0  0999 V2000
    9.7817  -67.9165    0.4466 C   0  0  0  0  0  0  0  0  0  0  0  0
   10.0890  -69.3824    0.1045 C   0  0  0  0  0  0  0  0  0  0  0  0
   11.3808  -69.8264   -0.0909 C   0  0  0  0  0  0  0  0  0  0  0  0
    6.3346  -70.2238    0.4017 C   0  0  0  0  0  0  0  0  0  0  0  0
    6.2241  -71.4834   -0.0033 C   0  0  0  0  0  0  0  0  0  0  0  0
    8.6116  -71.6257   -0.4028 C   0  0  0  0  0  0  0  0  0  0  0  0
    8.7500  -70.2084    0.0495 C   0  0  0  0  0  0  0  0  0  0  0  0
    7.4138  -72.2171   -0.4218 C   0  0  0  0  0  0  0  0  0  0  0  0
    7.6424  -69.5812    0.4225 C   0  0  0  0  0  0  0  0  0  0  0  0
    4.9746  -72.0934   -0.0266 O   0  0  0  0  0  0  0  0  0  0  0  0
   11.7063  -71.3049   -0.3973 C   0  0  0  0  0  0  0  0  0  0  0  0
   11.6734  -72.1824    0.8893 C   0  0  0  0  0  0  0  0  0  0  0  0
   12.7058  -68.9484   -0.0502 C   0  0  0  0  0  0  0  0  0  0  0  0
   13.8753  -69.5698   -0.1413 C   0  0  0  0  0  0  0  0  0  0  0  0
   15.1513  -68.8224   -0.1119 C   0  0  0  0  0  0  0  0  0  0  0  0
   15.1489  -67.4940   -0.0045 C   0  0  0  0  0  0  0  0  0  0  0  0
   13.8953  -66.7856    0.0867 C   0  0  0  0  0  0  0  0  0  0  0  0
   12.7471  -67.4571    0.0726 C   0  0  0  0  0  0  0  0  0  0  0  0
   16.3473  -66.7860    0.0210 O   0  0  0  0  0  0  0  0  0  0  0  0
    9.4482  -67.0997   -0.8424 C   0  0  0  0  0  0  0  0  0  0  0  0
    8.9981  -67.8828    1.0669 H   0  0  0  0  0  0  0  0  0  0  0  0
   10.5790  -67.5110    0.8936 H   0  0  0  0  0  0  0  0  0  0  0  0
    5.5226  -69.7173    0.6917 H   0  0  0  0  0  0  0  0  0  0  0  0
    9.4215  -72.1353   -0.6933 H   0  0  0  0  0  0  0  0  0  0  0  0
    7.3322  -73.1668   -0.7242 H   0  0  0  0  0  0  0  0  0  0  0  0
    7.7072  -68.6317    0.7296 H   0  0  0  0  0  0  0  0  0  0  0  0
    5.0681  -73.0335   -0.3544 H   0  0  0  0  0  0  0  0  0  0  0  0
   11.0320  -71.6569   -1.0465 H   0  0  0  0  0  0  0  0  0  0  0  0
   12.6191  -71.3582   -0.8022 H   0  0  0  0  0  0  0  0  0  0  0  0
   11.8882  -73.1300    0.6526 H   0  0  0  0  0  0  0  0  0  0  0  0
   10.7622  -72.1401    1.2991 H   0  0  0  0  0  0  0  0  0  0  0  0
   12.3487  -71.8415    1.5433 H   0  0  0  0  0  0  0  0  0  0  0  0
   13.8940  -70.5655   -0.2320 H   0  0  0  0  0  0  0  0  0  0  0  0
   16.0190  -69.3157   -0.1727 H   0  0  0  0  0  0  0  0  0  0  0  0
   13.8896  -65.7883    0.1607 H   0  0  0  0  0  0  0  0  0  0  0  0
   11.8875  -66.9515    0.1461 H   0  0  0  0  0  0  0  0  0  0  0  0
   16.1556  -65.8082    0.1051 H   0  0  0  0  0  0  0  0  0  0  0  0
    9.2522  -66.1509   -0.5949 H   0  0  0  0  0  0  0  0  0  0  0  0
    8.6491  -67.4981   -1.2927 H   0  0  0  0  0  0  0  0  0  0  0  0
   10.2296  -67.1264   -1.4659 H   0  0  0  0  0  0  0  0  0  0  0  0
  3  2  2  0  0  0  0
  4  5  2  0  0  0  0
  6  7  1  0  0  0  0
  4  9  1  0  0  0  0
  5  8  1  0  0  0  0
  8  6  2  0  0  0  0
  7  9  2  0  0  0  0
  5 10  1  0  0  0  0
  7  2  1  0  0  0  0
  2  1  1  0  0  0  0
  3 11  1  0  0  0  0
 11 12  1  0  0  0  0
  3 13  1  0  0  0  0
 13 14  2  0  0  0  0
 14 15  1  0  0  0  0
 15 16  2  0  0  0  0
 16 17  1  0  0  0  0
 17 18  2  0  0  0  0
 18 13  1  0  0  0  0
 16 19  1  0  0  0  0
  1 20  1  0  0  0  0
  1 21  1  0  0  0  0
  1 22  1  0  0  0  0
  4 23  1  0  0  0  0
  6 24  1  0  0  0  0
  8 25  1  0  0  0  0
  9 26  1  0  0  0  0
 10 27  1  0  0  0  0
 11 28  1  0  0  0  0
 11 29  1  0  0  0  0
 12 30  1  0  0  0  0
 12 31  1  0  0  0  0
 12 32  1  0  0  0  0
 14 33  1  0  0  0  0
 15 34  1  0  0  0  0
 17 35  1  0  0  0  0
 18 36  1  0  0  0  0
 19 37  1  0  0  0  0
 20 38  1  0  0  0  0
 20 39  1  0  0  0  0
 20 40  1  0  0  0  0
M  END
>  <Substance ID> (5)
5

>  <Mouse_Female_Canc> (5)
3

>  <SAL> (5)
1

>  <Rat_Male_Canc> (5)
3

>  <TD50_Rat> (5)
0.223

>  <TD50_Mouse> (5)
0.0372

>  <Rat_Female_Canc> (5)
3

>  <Canc> (5)
3

>  <MolWeight> (5)
268.36

>  <Mouse_Male_Canc> (5)
3

>  <Mouse_Male_NTP> (5)
ND

>  <ChemName> (5)
Diethylstilbestrol

>  <Rat_Male_NTP> (5)
ND

>  <Reference> (5)
CPDB

>  <Formula> (5)
C18H20O2 

>  <SMILES> (5)
Oc2ccc(/C(=C(/c1ccc(O)cc1)CC)CC)cc2

>  <Rat_Female_NTP> (5)
ND

>  <CAS> (5)
56-53-1

>  <Mouse_Female_NTP> (5)
ND

>  <Synonyms> (5)
3,4-bis(p-hydroxyphenyl)-3-hexene; 3,4-bis(4-hydroxyphenyl)hex-3-ene; DESMA; DES; Destrol; domestrol; dyestrol; (E)-4,4'-(1,2-diethyl-1,2-ethenediyl)bisphenol; (E)-alpha, alpha'-diethyl-4,4'-stilbenediol; estilbin ''mco''; estril; estrogen; estromenin; estrosyn; follidiene; fonatol; grafestrol; gynopharm; hibestrol; idroestril; iscovesco; makarol; menostilbeen; micrest; microest; milestrol; neo-oestranol 1; oekolp; oestrogenine; oestrolmensil; oestrol vetag; oestromensyl; oestromon; palestrol; protectona; rumestrol 1; rumestrol 2; sedestran; serral; sexocretin; Sibol; sintestrol; stibilium; STIL; stilbestrol; stilbestrone; stilbetin; stilboefral; stilboestroform; stilbofolin; stilbofollin; stilbol; stilkap; stil-rol; synthoestrin; synthofolin; syntofolin; tampovagan stilboestrol; trans-4,4'-(1,2-diethyl-1,2-ethenediyl)bisphenol; trans-alpha,alpha'-diethyl-4,4'-stilbenediol; trans-diethylstilbestrol; tylosterone; vagestrol; 4,4'-(1,2-diethyl-1,2-ethenediyl)bisphenol; 4,4'-dihydroxy-alpha,beta-diethylstilbene; 4,4'-dihydroxydiethylstilbene; alpha,alpha'-diethyl-4,4'-stilbenediol; alpha,alpha'-diethyl-(E)-4,4'-stilbenediol; alpha,alpha'-diethylstilbenediol; acnestrol; agostilben; antigestil; diastyl; dibestrol; dibestrol '2' premix; dicorvin; di-estryl; bio-des; Bufon; climaterine; comestrol; comestrol estrobene; Cyren; cyren a; dawe's destrol.

$$$$
6


 20 21  0  0  0  0  0  0  0  0999 V2000
    8.8326  -82.1706   -0.0012 N   0  3  0  0  0  0  0  0  0  0  0  0
    9.9375  -81.5408   -0.0018 C   0  0  0  0  0  0  0  0  0  0  0  0
    9.9617  -80.1087   -0.0014 C   0  0  0  0  0  0  0  0  0  0  0  0
    8.8161  -79.4460    0.0002 C   0  0  0  0  0  0  0  0  0  0  0  0
    7.5544  -80.1877    0.0012 C   0  0  0  0  0  0  0  0  0  0  0  0
    6.2496  -79.5127    0.0016 C   0  0  0  0  0  0  0  0  0  0  0  0
    5.1240  -80.2197    0.0013 C   0  0  0  0  0  0  0  0  0  0  0  0
    5.1829  -81.6769    0.0011 C   0  0  0  0  0  0  0  0  0  0  0  0
    6.3631  -82.2928    0.0011 C   0  0  0  0  0  0  0  0  0  0  0  0
    7.6034  -81.5105    0.0007 C   0  0  0  0  0  0  0  0  0  0  0  0
    8.8463  -83.4546   -0.0007 O   0  5  0  0  0  0  0  0  0  0  0  0
    8.8661  -78.0651    0.0005 N   0  3  0  0  0  0  0  0  0  0  0  0
   10.0334  -77.4871   -0.0027 O   0  5  0  0  0  0  0  0  0  0  0  0
    7.8929  -77.4188    0.0029 O   0  0  0  0  0  0  0  0  0  0  0  0
   10.7978  -82.0505   -0.0026 H   0  0  0  0  0  0  0  0  0  0  0  0
   10.8322  -79.6165   -0.0023 H   0  0  0  0  0  0  0  0  0  0  0  0
    6.2079  -78.5136    0.0022 H   0  0  0  0  0  0  0  0  0  0  0  0
    4.2392  -79.7536    0.0012 H   0  0  0  0  0  0  0  0  0  0  0  0
    4.3384  -82.2124    0.0010 H   0  0  0  0  0  0  0  0  0  0  0  0
    6.4039  -83.2919    0.0015 H   0  0  0  0  0  0  0  0  0  0  0  0
  1 10  1  0  0  0  0
  1  2  2  0  0  0  0
  2  3  1  0  0  0  0
  3  4  2  0  0  0  0
  4  5  1  0  0  0  0
  5 10  2  0  0  0  0
  5  6  1  0  0  0  0
  6  7  2  0  0  0  0
  7  8  1  0  0  0  0
  8  9  2  0  0  0  0
  9 10  1  0  0  0  0
  1 11  1  0  0  0  0
 12 13  1  0  0  0  0
 12 14  2  0  0  0  0
  4 12  1  0  0  0  0
  2 15  1  0  0  0  0
  3 16  1  0  0  0  0
  6 17  1  0  0  0  0
  7 18  1  0  0  0  0
  8 19  1  0  0  0  0
  9 20  1  0  0  0  0
M  END
>  <Substance ID> (6)
6

>  <Mouse_Female_Canc> (6)
3

>  <SAL> (6)
3

>  <Rat_Male_Canc> (6)
3

>  <TD50_Rat> (6)
ND

>  <TD50_Mouse> (6)
ND

>  <Rat_Female_Canc> (6)
3

>  <Canc> (6)
3

>  <MolWeight> (6)
190.16

>  <Mouse_Male_Canc> (6)
3

>  <Mouse_Male_NTP> (6)
ND

>  <ChemName> (6)
4-Nitroquinoline-N-Oxide

>  <Rat_Male_NTP> (6)
ND

>  <Reference> (6)
Toxnet

>  <Formula> (6)
C9H6N2O3 

>  <SMILES> (6)
N(=O)(=O)c1ccn(=O)c2ccccc12

>  <Rat_Female_NTP> (6)
ND

>  <CAS> (6)
56-57-5

>  <Mouse_Female_NTP> (6)
ND

>  <Synonyms> (6)
4-Nitroquinoline 1-oxide; 4-nitroquinoline oxide; 4-NQO; nitrochin.

$$$$
7


 20 21  0  0  0  0  0  0  0  0999 V2000
    5.3229  -91.0497    0.0003 C   0  0  0  0  0  0  0  0  0  0  0  0
    5.3194  -92.3818    0.0002 C   0  0  0  0  0  0  0  0  0  0  0  0
    6.5861  -93.1154    0.0000 C   0  0  0  0  0  0  0  0  0  0  0  0
    6.5941  -90.3232    0.0002 C   0  0  0  0  0  0  0  0  0  0  0  0
    7.7412  -90.9988    0.0000 C   0  0  0  0  0  0  0  0  0  0  0  0
    7.7369  -92.4459    0.0001 C   0  0  0  0  0  0  0  0  0  0  0  0
    9.0074  -93.1537    0.0004 C   0  0  0  0  0  0  0  0  0  0  0  0
   10.1507  -92.4665    0.0001 C   0  0  0  0  0  0  0  0  0  0  0  0
   11.4066  -90.2889   -0.0002 N   0  0  0  0  0  0  0  0  0  0  0  0
    9.0164  -90.2968   -0.0004 C   0  0  0  0  0  0  0  0  0  0  0  0
   10.1580  -90.9878    0.0000 C   0  0  0  0  0  0  0  0  0  0  0  0
    4.4586  -90.5466    0.0005 H   0  0  0  0  0  0  0  0  0  0  0  0
    4.4524  -92.8801    0.0002 H   0  0  0  0  0  0  0  0  0  0  0  0
    6.5870  -94.1154   -0.0002 H   0  0  0  0  0  0  0  0  0  0  0  0
    6.6006  -89.3232    0.0002 H   0  0  0  0  0  0  0  0  0  0  0  0
    9.0239  -94.1536    0.0009 H   0  0  0  0  0  0  0  0  0  0  0  0
   11.0198  -92.9610   -0.0001 H   0  0  0  0  0  0  0  0  0  0  0  0
   11.4198  -89.2890   -0.0002 H   0  0  0  0  0  0  0  0  0  0  0  0
   12.2659  -90.8003   -0.0003 H   0  0  0  0  0  0  0  0  0  0  0  0
    9.0369  -89.2970   -0.0011 H   0  0  0  0  0  0  0  0  0  0  0  0
  1  2  2  0  0  0  0
  1  4  1  0  0  0  0
  2  3  1  0  0  0  0
  3  6  2  0  0  0  0
  5  4  2  0  0  0  0
  5  6  1  0  0  0  0
  5 10  1  0  0  0  0
  6  7  1  0  0  0  0
  7  8  2  0  0  0  0
  8 11  1  0  0  0  0
 11  9  1  0  0  0  0
 10 11  2  0  0  0  0
  1 12  1  0  0  0  0
  2 13  1  0  0  0  0
  3 14  1  0  0  0  0
  4 15  1  0  0  0  0
  7 16  1  0  0  0  0
  8 17  1  0  0  0  0
  9 18  1  0  0  0  0
  9 19  1  0  0  0  0
 10 20  1  0  0  0  0
M  END
>  <Substance ID> (7)
7

>  <Mouse_Female_Canc> (7)
3

>  <SAL> (7)
3

>  <Rat_Male_Canc> (7)
ND

>  <TD50_Rat> (7)
61.6

>  <TD50_Mouse> (7)
36.7

>  <Rat_Female_Canc> (7)
3

>  <Canc> (7)
3

>  <MolWeight> (7)
143.19

>  <Mouse_Male_Canc> (7)
3

>  <Mouse_Male_NTP> (7)
ND

>  <ChemName> (7)
2-Naphthylamine

>  <Rat_Male_NTP> (7)
ND

>  <Reference> (7)
CPDB

>  <Formula> (7)
C10H9N

>  <SMILES> (7)
C12=C(C=CC(=C1)N)C=CC=C2

>  <Rat_Female_NTP> (7)
ND

>  <CAS> (7)
91-59-8

>  <Mouse_Female_NTP> (7)
ND

>  <Synonyms> (7)
2-Aminonaphthalene; 2-Naphthalenamine; 6-naphthylamine; BNA; beta-Naphthylamine; C.I. 37270; Fast Scarlet Base B; NA.

$$$$
8


 26 27  0  0  0  0  0  0  0  0999 V2000
    4.7387   -9.6895   -0.0000 C   0  0  0  0  0  0  0  0  0  0  0  0
    4.0550  -10.8320    0.0001 C   0  0  0  0  0  0  0  0  0  0  0  0
    6.0986  -12.1307   -0.0003 C   0  0  0  0  0  0  0  0  0  0  0  0
    6.8503  -10.8752    0.0007 C   0  0  0  0  0  0  0  0  0  0  0  0
    4.7671  -12.1102   -0.0001 C   0  0  0  0  0  0  0  0  0  0  0  0
    6.2017   -9.7122    0.0005 C   0  0  0  0  0  0  0  0  0  0  0  0
    2.6586  -10.8098    0.0004 N   0  0  0  0  0  0  0  0  0  0  0  0
    8.3141  -10.8986    0.0007 C   0  0  0  0  0  0  0  0  0  0  0  0
    8.9618  -12.0621   -0.0004 C   0  0  0  0  0  0  0  0  0  0  0  0
   11.1101  -10.9437    0.0002 C   0  0  0  0  0  0  0  0  0  0  0  0
   10.3981   -9.6650   -0.0002 C   0  0  0  0  0  0  0  0  0  0  0  0
   10.4251  -12.0857   -0.0002 C   0  0  0  0  0  0  0  0  0  0  0  0
    9.0665   -9.6435    0.0008 C   0  0  0  0  0  0  0  0  0  0  0  0
   12.5062  -10.9656    0.0003 N   0  0  0  0  0  0  0  0  0  0  0  0
    4.2522   -8.8158   -0.0005 H   0  0  0  0  0  0  0  0  0  0  0  0
    6.5849  -13.0045   -0.0010 H   0  0  0  0  0  0  0  0  0  0  0  0
    4.2539  -12.9684   -0.0002 H   0  0  0  0  0  0  0  0  0  0  0  0
    6.7148   -8.8539    0.0008 H   0  0  0  0  0  0  0  0  0  0  0  0
    2.1449  -11.6677    0.0006 H   0  0  0  0  0  0  0  0  0  0  0  0
    2.1725   -9.9359    0.0005 H   0  0  0  0  0  0  0  0  0  0  0  0
    8.4481  -12.9201   -0.0013 H   0  0  0  0  0  0  0  0  0  0  0  0
   10.9117   -8.8070   -0.0012 H   0  0  0  0  0  0  0  0  0  0  0  0
   10.9109  -12.9598   -0.0003 H   0  0  0  0  0  0  0  0  0  0  0  0
    8.5806   -8.7695    0.0016 H   0  0  0  0  0  0  0  0  0  0  0  0
   12.9925  -11.8393    0.0005 H   0  0  0  0  0  0  0  0  0  0  0  0
   13.0197  -10.1076    0.0001 H   0  0  0  0  0  0  0  0  0  0  0  0
  1  2  2  0  0  0  0
  3  4  1  0  0  0  0
  1  6  1  0  0  0  0
  2  5  1  0  0  0  0
  5  3  2  0  0  0  0
  4  6  2  0  0  0  0
  2  7  1  0  0  0  0
  4  8  1  0  0  0  0
  8  9  2  0  0  0  0
 10 11  1  0  0  0  0
  8 13  1  0  0  0  0
  9 12  1  0  0  0  0
 12 10  2  0  0  0  0
 11 13  2  0  0  0  0
 10 14  1  0  0  0  0
  1 15  1  0  0  0  0
  3 16  1  0  0  0  0
  5 17  1  0  0  0  0
  6 18  1  0  0  0  0
  7 19  1  0  0  0  0
  7 20  1  0  0  0  0
  9 21  1  0  0  0  0
 11 22  1  0  0  0  0
 12 23  1  0  0  0  0
 13 24  1  0  0  0  0
 14 25  1  0  0  0  0
 14 26  1  0  0  0  0
M  END
>  <Substance ID> (8)
8

>  <Mouse_Female_Canc> (8)
3

>  <SAL> (8)
3

>  <Rat_Male_Canc> (8)
3

>  <TD50_Rat> (8)
1.73

>  <TD50_Mouse> (8)
ND

>  <Rat_Female_Canc> (8)
3

>  <Canc> (8)
3

>  <MolWeight> (8)
184.24

>  <Mouse_Male_Canc> (8)
3

>  <Mouse_Male_NTP> (8)
ND

>  <ChemName> (8)
Benzidine

>  <Rat_Male_NTP> (8)
ND

>  <Reference> (8)
CPDB & Toxnet

>  <Formula> (8)
C12H12N2 

>  <SMILES> (8)
NC1=CC=C(C2=CC=C(N)C=C2)C=C1

>  <Rat_Female_NTP> (8)
ND

>  <CAS> (8)
92-87-5

>  <Mouse_Female_NTP> (8)
ND

>  <Synonyms> (8)
1,1'-Biphenyl-4,4'-Diamine; 4,4'-diamino-1,1'-biphenyl; 4,4'-Diaminobiphenyl; 4,4'-Bianiline; 4,4'-Biphenyldiamine; 4,4'-Diphenylenediamine; p-benzidine; p-Diaminodiphenyl; Bensidine; benzidine base; C.I. 37225; C.I. azoic diazo component 112; fast corinth base b.

$$$$
9


 30 32  0  0  0  0  0  0  0  0999 V2000
    1.1196  -16.3765   -0.0146 C   0  0  0  0  0  0  0  0  0  0  0  0
    1.7504  -17.5605   -0.0107 C   0  0  0  0  0  0  0  0  0  0  0  0
    3.2277  -17.6140   -0.0024 C   0  0  0  0  0  0  0  0  0  0  0  0
    1.8965  -15.1171   -0.0101 C   0  0  0  0  0  0  0  0  0  0  0  0
    3.2203  -15.2129   -0.0023 C   0  0  0  0  0  0  0  0  0  0  0  0
    3.8734  -16.4556    0.0017 C   0  0  0  0  0  0  0  0  0  0  0  0
    4.2191  -14.0663    0.0035 C   0  0  0  0  0  0  0  0  0  0  0  0
    5.5038  -14.9228    0.0089 C   0  0  0  0  0  0  0  0  0  0  0  0
    5.2677  -16.2241    0.0074 C   0  0  0  0  0  0  0  0  0  0  0  0
    7.5861  -16.7556    0.0130 C   0  0  0  0  0  0  0  0  0  0  0  0
    7.8709  -15.2813    0.0129 C   0  0  0  0  0  0  0  0  0  0  0  0
    6.3283  -17.2056    0.0112 C   0  0  0  0  0  0  0  0  0  0  0  0
    6.8572  -14.4103    0.0118 C   0  0  0  0  0  0  0  0  0  0  0  0
    9.1934  -14.7698    0.0119 N   0  0  0  0  0  0  0  0  0  0  0  0
   10.3634  -15.5661   -0.0074 C   0  0  0  0  0  0  0  0  0  0  0  0
   10.3122  -16.8005   -0.0271 O   0  0  0  0  0  0  0  0  0  0  0  0
   11.7033  -14.8904   -0.0067 C   0  0  0  0  0  0  0  0  0  0  0  0
    0.1201  -16.3449   -0.0206 H   0  0  0  0  0  0  0  0  0  0  0  0
    1.2203  -18.4084   -0.0133 H   0  0  0  0  0  0  0  0  0  0  0  0
    3.7185  -18.4853   -0.0001 H   0  0  0  0  0  0  0  0  0  0  0  0
    1.4411  -14.2269   -0.0129 H   0  0  0  0  0  0  0  0  0  0  0  0
    4.1386  -13.4949    0.8202 H   0  0  0  0  0  0  0  0  0  0  0  0
    4.1464  -13.4935   -0.8130 H   0  0  0  0  0  0  0  0  0  0  0  0
    8.3451  -17.4067    0.0146 H   0  0  0  0  0  0  0  0  0  0  0  0
    6.1280  -18.1853    0.0123 H   0  0  0  0  0  0  0  0  0  0  0  0
    7.0302  -13.4254    0.0130 H   0  0  0  0  0  0  0  0  0  0  0  0
    9.3075  -13.7765    0.0258 H   0  0  0  0  0  0  0  0  0  0  0  0
   12.4257  -15.5816   -0.0215 H   0  0  0  0  0  0  0  0  0  0  0  0
   11.7947  -14.3311    0.8172 H   0  0  0  0  0  0  0  0  0  0  0  0
   11.7837  -14.3076   -0.8154 H   0  0  0  0  0  0  0  0  0  0  0  0
  1  2  2  0  0  0  0
  1  4  1  0  0  0  0
  2  3  1  0  0  0  0
  3  6  2  0  0  0  0
  5  4  2  0  0  0  0
  5  6  1  0  0  0  0
  8  7  1  0  0  0  0
  7  5  1  0  0  0  0
  6  9  1  0  0  0  0
  8  9  2  0  0  0  0
 10 11  1  0  0  0  0
  8 13  1  0  0  0  0
  9 12  1  0  0  0  0
 12 10  2  0  0  0  0
 11 13  2  0  0  0  0
 11 14  1  0  0  0  0
 14 15  1  0  0  0  0
 15 16  2  0  0  0  0
 15 17  1  0  0  0  0
  1 18  1  0  0  0  0
  2 19  1  0  0  0  0
  3 20  1  0  0  0  0
  4 21  1  0  0  0  0
  7 22  1  0  0  0  0
  7 23  1  0  0  0  0
 10 24  1  0  0  0  0
 12 25  1  0  0  0  0
 13 26  1  0  0  0  0
 14 27  1  0  0  0  0
 17 28  1  0  0  0  0
 17 29  1  0  0  0  0
 17 30  1  0  0  0  0
M  END
>  <Substance ID> (9)
9

>  <Mouse_Female_Canc> (9)
3

>  <SAL> (9)
3

>  <Rat_Male_Canc> (9)
3

>  <TD50_Rat> (9)
1.22

>  <TD50_Mouse> (9)
7.59

>  <Rat_Female_Canc> (9)
3

>  <Canc> (9)
3

>  <MolWeight> (9)
223.28

>  <Mouse_Male_Canc> (9)
3

>  <Mouse_Male_NTP> (9)
ND

>  <ChemName> (9)
2-Acetylaminofluorene

>  <Rat_Male_NTP> (9)
ND

>  <Reference> (9)
CPDB

>  <Formula> (9)
C15H13NO 

>  <SMILES> (9)
O=C(Nc3ccc2c1ccccc1Cc2c3)C

>  <Rat_Female_NTP> (9)
ND

>  <CAS> (9)
53-96-3

>  <Mouse_Female_NTP> (9)
ND

>  <Synonyms> (9)
2-AAF; 2-Acetamidofluorene; 2-acetaminofluorene; 2-FAA; 2-fluorenylacetamide; AAF; Acetamidofluorene; acetoaminofluorene; FAA; Fluorenylacetamide; N-2-Fluorenyl Acetamide; N-9H-fluoren-2-yl-Acetamide; N-Acetyl-2-aminofluorene; N-Fluoren-2-yl acetamide.

$$$$
10


 32 36  0  0  0  0  0  0  0  0999 V2000
    5.2931  -27.1474   -0.0006 C   0  0  0  0  0  0  0  0  0  0  0  0
    6.4428  -26.4779   -0.0009 C   0  0  0  0  0  0  0  0  0  0  0  0
    8.8584  -26.4957   -0.0007 C   0  0  0  0  0  0  0  0  0  0  0  0
    7.7161  -27.1850   -0.0009 C   0  0  0  0  0  0  0  0  0  0  0  0
    1.6078  -25.0160    0.0003 C   0  0  0  0  0  0  0  0  0  0  0  0
    1.6065  -26.4791   -0.0000 C   0  0  0  0  0  0  0  0  0  0  0  0
    2.7595  -27.1450   -0.0004 C   0  0  0  0  0  0  0  0  0  0  0  0
    4.0272  -26.4139   -0.0001 C   0  0  0  0  0  0  0  0  0  0  0  0
    4.0286  -25.0814    0.0001 C   0  0  0  0  0  0  0  0  0  0  0  0
    2.7611  -24.3502    0.0005 C   0  0  0  0  0  0  0  0  0  0  0  0
    8.8689  -22.2225   -0.0004 C   0  0  0  0  0  0  0  0  0  0  0  0
    7.7175  -22.8906   -0.0000 C   0  0  0  0  0  0  0  0  0  0  0  0
   10.1354  -22.9583    0.0001 C   0  0  0  0  0  0  0  0  0  0  0  0
   10.1314  -24.2904    0.0005 C   0  0  0  0  0  0  0  0  0  0  0  0
    8.8602  -25.0164    0.0004 C   0  0  0  0  0  0  0  0  0  0  0  0
    7.7142  -24.3349    0.0005 C   0  0  0  0  0  0  0  0  0  0  0  0
    6.4466  -25.0314   -0.0002 C   0  0  0  0  0  0  0  0  0  0  0  0
    5.2993  -24.3517   -0.0004 C   0  0  0  0  0  0  0  0  0  0  0  0
    5.3002  -22.8722   -0.0006 C   0  0  0  0  0  0  0  0  0  0  0  0
    6.4432  -22.1828   -0.0004 C   0  0  0  0  0  0  0  0  0  0  0  0
    5.2943  -28.1474   -0.0006 H   0  0  0  0  0  0  0  0  0  0  0  0
    9.7289  -26.9878   -0.0013 H   0  0  0  0  0  0  0  0  0  0  0  0
    7.7342  -28.1848   -0.0010 H   0  0  0  0  0  0  0  0  0  0  0  0
    0.7420  -24.5156    0.0003 H   0  0  0  0  0  0  0  0  0  0  0  0
    0.7403  -26.9787    0.0001 H   0  0  0  0  0  0  0  0  0  0  0  0
    2.7592  -28.1450   -0.0009 H   0  0  0  0  0  0  0  0  0  0  0  0
    2.7610  -23.3502    0.0009 H   0  0  0  0  0  0  0  0  0  0  0  0
    8.8692  -21.2225   -0.0011 H   0  0  0  0  0  0  0  0  0  0  0  0
   11.0029  -22.4608    0.0003 H   0  0  0  0  0  0  0  0  0  0  0  0
   10.9955  -24.7937    0.0007 H   0  0  0  0  0  0  0  0  0  0  0  0
    4.4297  -22.3802   -0.0007 H   0  0  0  0  0  0  0  0  0  0  0  0
    6.4254  -21.1830   -0.0006 H   0  0  0  0  0  0  0  0  0  0  0  0
  4  2  1  0  0  0  0
  2 17  1  0  0  0  0
  2  1  2  0  0  0  0
  1  8  1  0  0  0  0
  9 18  1  0  0  0  0
 15  3  1  0  0  0  0
  3  4  2  0  0  0  0
  5 10  2  0  0  0  0
  5  6  1  0  0  0  0
  6  7  2  0  0  0  0
  7  8  1  0  0  0  0
  8  9  2  0  0  0  0
  9 10  1  0  0  0  0
 20 12  1  0  0  0  0
 12 16  1  0  0  0  0
 12 11  2  0  0  0  0
 11 13  1  0  0  0  0
 13 14  2  0  0  0  0
 14 15  1  0  0  0  0
 15 16  2  0  0  0  0
 16 17  1  0  0  0  0
 17 18  2  0  0  0  0
 18 19  1  0  0  0  0
 19 20  2  0  0  0  0
  1 21  1  0  0  0  0
  3 22  1  0  0  0  0
  4 23  1  0  0  0  0
  5 24  1  0  0  0  0
  6 25  1  0  0  0  0
  7 26  1  0  0  0  0
 10 27  1  0  0  0  0
 11 28  1  0  0  0  0
 13 29  1  0  0  0  0
 14 30  1  0  0  0  0
 19 31  1  0  0  0  0
 20 32  1  0  0  0  0
M  END
>  <Substance ID> (10)
10

>  <Mouse_Female_Canc> (10)
1

>  <SAL> (10)
3

>  <Rat_Male_Canc> (10)
3

>  <TD50_Rat> (10)
0.96

>  <TD50_Mouse> (10)
11

>  <Rat_Female_Canc> (10)
3

>  <Canc> (10)
3

>  <MolWeight> (10)
252.32

>  <Mouse_Male_Canc> (10)
3

>  <Mouse_Male_NTP> (10)
ND

>  <ChemName> (10)
Benzo(a)pyrene

>  <Rat_Male_NTP> (10)
ND

>  <Reference> (10)
CPDB

>  <Formula> (10)
C20H12 

>  <SMILES> (10)
C1=CC2=CC=CC3=CC=C4C(=C23)C1=C5C(=C4)C=CC=C5

>  <Rat_Female_NTP> (10)
ND

>  <CAS> (10)
50-32-8

>  <Mouse_Female_NTP> (10)
ND

>  <Synonyms> (10)
3,4-benz[a]pyrene; 3,4-Benzopyrene; 3,4-Benzpyrene; 3,4-benzylpyrene; 3,4-BP; 6,7-Benzopyrene; B[A]P; Benzo[a]pyrene; Benzo[d,e,f]chrysene; Benzpyrene; BP.

$$$$
11


 13 11  0  0  0  0  0  0  0  0999 V2000
   13.7184  -13.3960   -0.0002 N   0  0  0  0  0  0  0  0  0  0  0  0
   14.9315  -12.6971    0.0002 N   0  0  0  0  0  0  0  0  0  0  0  0
   12.9586  -12.7460   -0.0003 H   0  0  0  0  0  0  0  0  0  0  0  0
   13.6643  -13.9711    0.8162 H   0  0  0  0  0  0  0  0  0  0  0  0
   15.6913  -13.3471    0.0003 H   0  0  0  0  0  0  0  0  0  0  0  0
   14.9852  -12.1221    0.8166 H   0  0  0  0  0  0  0  0  0  0  0  0
   22.7949  -11.6335   -0.0022 S   0  0  0  0  0  0  0  0  0  0  0  0
   24.1396  -11.6031    1.0375 O   0  0  0  0  0  0  0  0  0  0  0  0
   22.8357  -10.4242   -0.9171 O   0  0  0  0  0  0  0  0  0  0  0  0
   21.5199  -11.6033    0.8192 O   0  0  0  0  0  0  0  0  0  0  0  0
   22.8333  -13.0529   -0.9369 O   0  0  0  0  0  0  0  0  0  0  0  0
   24.1132  -12.4001    1.6408 H   0  0  0  0  0  0  0  0  0  0  0  0
   22.0425  -13.0713   -1.5486 H   0  0  0  0  0  0  0  0  0  0  0  0
  1  2  1  0  0  0  0
  1  3  1  0  0  0  0
  1  4  1  0  0  0  0
  2  5  1  0  0  0  0
  2  6  1  0  0  0  0
  7  8  1  0  0  0  0
  7  9  2  0  0  0  0
  7 10  2  0  0  0  0
  7 11  1  0  0  0  0
  8 12  1  0  0  0  0
 11 13  1  0  0  0  0
M  END
>  <Substance ID> (11)
11

>  <Mouse_Female_Canc> (11)
3

>  <SAL> (11)
3

>  <Rat_Male_Canc> (11)
3

>  <TD50_Rat> (11)
41

>  <TD50_Mouse> (11)
7.59

>  <Rat_Female_Canc> (11)
3

>  <Canc> (11)
3

>  <MolWeight> (11)
130.12

>  <Mouse_Male_Canc> (11)
3

>  <Mouse_Male_NTP> (11)
ND

>  <ChemName> (11)
Hydrazine Sulphate

>  <Rat_Male_NTP> (11)
ND

>  <Reference> (11)
CPDB

>  <Formula> (11)
H4N2O4S

>  <SMILES> (11)
O=S(=O)(O)O.NN

>  <Rat_Female_NTP> (11)
ND

>  <CAS> (11)
10034-93-2

>  <Mouse_Female_NTP> (11)
ND

>  <Synonyms> (11)
Diamidogen sulfate; Diamine Sulfate; Hydrazine and hydrazine sulfate; Hydrazine dihydrogen sulfate salt; Hydrazine hydrogen sulfate; Hydrazinium(2+) sulfate; Hydrazinium sulfate; Hydrazine monosulfate; Hydrazine sulfate (1:1).

$$$$
12


 29 28  0  0  0  0  0  0  0  0999 V2000
    2.2782  -48.8732    0.8136 N   0  0  0  0  0  0  0  0  0  0  0  0
    3.7821  -48.9002    0.3062 P   0  0  0  0  0  0  0  0  0  0  0  0
    4.1438  -47.6483   -0.5596 N   0  0  0  0  0  0  0  0  0  0  0  0
    4.1358  -50.1998   -0.4945 N   0  0  0  0  0  0  0  0  0  0  0  0
    4.5836  -48.8728    1.3815 O   0  0  0  0  0  0  0  0  0  0  0  0
    5.3528  -46.9283   -0.2499 C   0  0  0  0  0  0  0  0  0  0  0  0
    3.3574  -47.2107   -1.7105 C   0  0  0  0  0  0  0  0  0  0  0  0
    1.6285  -47.6197    1.1511 C   0  0  0  0  0  0  0  0  0  0  0  0
    1.5610  -50.0930    1.1303 C   0  0  0  0  0  0  0  0  0  0  0  0
    3.3614  -50.6812   -1.6371 C   0  0  0  0  0  0  0  0  0  0  0  0
    5.3261  -50.9246   -0.1299 C   0  0  0  0  0  0  0  0  0  0  0  0
    5.4537  -46.1586   -0.8802 H   0  0  0  0  0  0  0  0  0  0  0  0
    6.1386  -47.5398   -0.3428 H   0  0  0  0  0  0  0  0  0  0  0  0
    5.3064  -46.5861    0.6886 H   0  0  0  0  0  0  0  0  0  0  0  0
    3.7741  -46.3932   -2.1081 H   0  0  0  0  0  0  0  0  0  0  0  0
    2.4250  -46.9998   -1.4170 H   0  0  0  0  0  0  0  0  0  0  0  0
    3.3342  -47.9391   -2.3953 H   0  0  0  0  0  0  0  0  0  0  0  0
    0.6909  -47.7992    1.4487 H   0  0  0  0  0  0  0  0  0  0  0  0
    1.6145  -47.0241    0.3479 H   0  0  0  0  0  0  0  0  0  0  0  0
    2.1319  -47.1710    1.8895 H   0  0  0  0  0  0  0  0  0  0  0  0
    0.6342  -49.8670    1.4302 H   0  0  0  0  0  0  0  0  0  0  0  0
    2.0380  -50.5804    1.8618 H   0  0  0  0  0  0  0  0  0  0  0  0
    1.5155  -50.6741    0.3177 H   0  0  0  0  0  0  0  0  0  0  0  0
    3.7713  -51.5234   -1.9872 H   0  0  0  0  0  0  0  0  0  0  0  0
    3.3615  -49.9869   -2.3568 H   0  0  0  0  0  0  0  0  0  0  0  0
    2.4209  -50.8631   -1.3501 H   0  0  0  0  0  0  0  0  0  0  0  0
    5.4238  -51.7250   -0.7212 H   0  0  0  0  0  0  0  0  0  0  0  0
    5.2578  -51.2209    0.8228 H   0  0  0  0  0  0  0  0  0  0  0  0
    6.1241  -50.3317   -0.2378 H   0  0  0  0  0  0  0  0  0  0  0  0
  1  2  1  0  0  0  0
  2  3  1  0  0  0  0
  2  4  1  0  0  0  0
  2  5  2  0  0  0  0
  3  6  1  0  0  0  0
  3  7  1  0  0  0  0
  1  8  1  0  0  0  0
  1  9  1  0  0  0  0
  4 10  1  0  0  0  0
  4 11  1  0  0  0  0
  6 12  1  0  0  0  0
  6 13  1  0  0  0  0
  6 14  1  0  0  0  0
  7 15  1  0  0  0  0
  7 16  1  0  0  0  0
  7 17  1  0  0  0  0
  8 18  1  0  0  0  0
  8 19  1  0  0  0  0
  8 20  1  0  0  0  0
  9 21  1  0  0  0  0
  9 22  1  0  0  0  0
  9 23  1  0  0  0  0
 10 24  1  0  0  0  0
 10 25  1  0  0  0  0
 10 26  1  0  0  0  0
 11 27  1  0  0  0  0
 11 28  1  0  0  0  0
 11 29  1  0  0  0  0
M  END
>  <Substance ID> (12)
12

>  <Mouse_Female_Canc> (12)
ND

>  <SAL> (12)
1

>  <Rat_Male_Canc> (12)
3

>  <TD50_Rat> (12)
ND

>  <TD50_Mouse> (12)
ND

>  <Rat_Female_Canc> (12)
3

>  <Canc> (12)
3

>  <MolWeight> (12)
179.20

>  <Mouse_Male_Canc> (12)
ND

>  <Mouse_Male_NTP> (12)
ND

>  <ChemName> (12)
Hexamethylphosphoramide

>  <Rat_Male_NTP> (12)
ND

>  <Reference> (12)
Toxnet

>  <Formula> (12)
C6H18N3OP

>  <SMILES> (12)
O=P(N(C)C)(N(C)C)N(C)C

>  <Rat_Female_NTP> (12)
ND

>  <CAS> (12)
680-31-9

>  <Mouse_Female_NTP> (12)
ND

>  <Synonyms> (12)
Hempa; Hexametapol; hexamethylphosphoric acid triamide; Hexamethylphosphoric triamide; hexamethylphosphorotriamide; HMPA; HMPT; HPT; N,N,N,N,N,N-hexamethylphosphoric triamide; Phosphoric acid hexamethyltriamide; phosphoric tris(dimethylamide); phosphoryl hexamethyltriamide; Tris(dimethylamino)phosphine oxide; tris(dimethylamino)phosphorus oxide.

$$$$
13


 25 26  0  0  0  0  0  0  0  0999 V2000
    2.6463  -59.8633    0.0073 C   0  0  0  0  0  0  0  0  0  0  0  0
    2.4953  -61.1845   -0.0076 C   0  0  0  0  0  0  0  0  0  0  0  0
    4.8778  -61.5021   -0.0228 C   0  0  0  0  0  0  0  0  0  0  0  0
    5.0868  -60.0258   -0.0023 C   0  0  0  0  0  0  0  0  0  0  0  0
    3.6640  -62.0400   -0.0228 C   0  0  0  0  0  0  0  0  0  0  0  0
    3.9884  -59.2655    0.0113 C   0  0  0  0  0  0  0  0  0  0  0  0
    6.4529  -59.3855    0.0030 N   0  0  0  0  0  0  0  0  0  0  0  0
    7.7212  -60.1187    0.0045 C   0  0  0  0  0  0  0  0  0  0  0  0
    7.8162  -61.4506    0.0017 C   0  0  0  0  0  0  0  0  0  0  0  0
   10.2238  -61.4134    0.0042 C   0  0  0  0  0  0  0  0  0  0  0  0
   10.1512  -59.9526    0.0091 C   0  0  0  0  0  0  0  0  0  0  0  0
    9.1040  -62.1268    0.0014 C   0  0  0  0  0  0  0  0  0  0  0  0
    8.9677  -59.3377    0.0096 C   0  0  0  0  0  0  0  0  0  0  0  0
    6.5956  -58.0206    0.0077 N   0  0  0  0  0  0  0  0  0  0  0  0
    5.7012  -57.2563   -0.0027 O   0  0  0  0  0  0  0  0  0  0  0  0
    1.8399  -59.2720    0.0159 H   0  0  0  0  0  0  0  0  0  0  0  0
    1.5792  -61.5855   -0.0082 H   0  0  0  0  0  0  0  0  0  0  0  0
    5.6756  -62.1049   -0.0369 H   0  0  0  0  0  0  0  0  0  0  0  0
    3.5568  -63.0341   -0.0334 H   0  0  0  0  0  0  0  0  0  0  0  0
    4.0815  -58.2700    0.0244 H   0  0  0  0  0  0  0  0  0  0  0  0
    6.9793  -61.9980   -0.0003 H   0  0  0  0  0  0  0  0  0  0  0  0
   11.1122  -61.8724    0.0031 H   0  0  0  0  0  0  0  0  0  0  0  0
   10.9928  -59.4124    0.0120 H   0  0  0  0  0  0  0  0  0  0  0  0
    9.1459  -63.1259   -0.0010 H   0  0  0  0  0  0  0  0  0  0  0  0
    8.9274  -58.3385    0.0134 H   0  0  0  0  0  0  0  0  0  0  0  0
  1  2  2  0  0  0  0
  3  4  1  0  0  0  0
  1  6  1  0  0  0  0
  2  5  1  0  0  0  0
  5  3  2  0  0  0  0
  4  6  2  0  0  0  0
  4  7  1  0  0  0  0
  7  8  1  0  0  0  0
  8  9  2  0  0  0  0
 10 11  1  0  0  0  0
  8 13  1  0  0  0  0
  9 12  1  0  0  0  0
 12 10  2  0  0  0  0
 11 13  2  0  0  0  0
  7 14  1  0  0  0  0
 14 15  2  0  0  0  0
  1 16  1  0  0  0  0
  2 17  1  0  0  0  0
  3 18  1  0  0  0  0
  5 19  1  0  0  0  0
  6 20  1  0  0  0  0
  9 21  1  0  0  0  0
 10 22  1  0  0  0  0
 11 23  1  0  0  0  0
 12 24  1  0  0  0  0
 13 25  1  0  0  0  0
M  END
>  <Substance ID> (13)
13

>  <Mouse_Female_Canc> (13)
1

>  <SAL> (13)
1

>  <Rat_Male_Canc> (13)
3

>  <TD50_Rat> (13)
167

>  <TD50_Mouse> (13)
NP

>  <Rat_Female_Canc> (13)
3

>  <Canc> (13)
3

>  <MolWeight> (13)
198.23

>  <Mouse_Male_Canc> (13)
1

>  <Mouse_Male_NTP> (13)
ND

>  <ChemName> (13)
N-Nitrosodiphenylamine

>  <Rat_Male_NTP> (13)
ND

>  <Reference> (13)
NTP164

>  <Formula> (13)
C12H10N2O 

>  <SMILES> (13)
O=NN(C1=CC=CC=C1)C2=CC=CC=C2

>  <Rat_Female_NTP> (13)
ND

>  <CAS> (13)
86-30-6

>  <Mouse_Female_NTP> (13)
ND

>  <Synonyms> (13)
Diphenylnitrosamine; diphenyl-N-nitrosoamine; curetard a; delac j; naugard tjb; NDPHA; Nitrosodiphenylamine; nitrous diphenylamide; N,N-diphenylnitrosamine; N-Nitroso-N-Phenylaniline; N-nitroso-N-phenylbenzenamine; Redax; retarder j; TJB; vulcalent a; vulcatard; vulcatard a; vultrol.

$$$$
14


 12 12  0  0  0  0  0  0  0  0999 V2000
    3.0852  -75.5804    0.0012 C   0  0  0  0  0  0  0  0  0  0  0  0
    3.6478  -77.0616   -0.0007 C   0  0  0  0  0  0  0  0  0  0  0  0
    5.1183  -76.8890    0.0006 N   0  0  0  0  0  0  0  0  0  0  0  0
    5.4423  -75.5325    0.0001 C   0  0  0  0  0  0  0  0  0  0  0  0
    4.2995  -74.7333   -0.0003 N   0  0  0  0  0  0  0  0  0  0  0  0
    6.9049  -74.9770    0.0001 S   0  0  0  0  0  0  0  0  0  0  0  0
    2.5324  -75.4096   -0.8144 H   0  0  0  0  0  0  0  0  0  0  0  0
    2.5351  -75.4107    0.8189 H   0  0  0  0  0  0  0  0  0  0  0  0
    3.3478  -77.5562    0.8150 H   0  0  0  0  0  0  0  0  0  0  0  0
    3.3489  -77.5537   -0.8183 H   0  0  0  0  0  0  0  0  0  0  0  0
    5.7826  -77.6364    0.0016 H   0  0  0  0  0  0  0  0  0  0  0  0
    4.3001  -73.7333   -0.0014 H   0  0  0  0  0  0  0  0  0  0  0  0
  1  2  1  0  0  0  0
  3  4  1  0  0  0  0
  4  5  1  0  0  0  0
  5  1  1  0  0  0  0
  2  3  1  0  0  0  0
  4  6  2  0  0  0  0
  1  7  1  0  0  0  0
  1  8  1  0  0  0  0
  2  9  1  0  0  0  0
  2 10  1  0  0  0  0
  3 11  1  0  0  0  0
  5 12  1  0  0  0  0
M  END
>  <Substance ID> (14)
14

>  <Mouse_Female_Canc> (14)
3

>  <SAL> (14)
1

>  <Rat_Male_Canc> (14)
3

>  <TD50_Rat> (14)
7.9

>  <TD50_Mouse> (14)
23.5

>  <Rat_Female_Canc> (14)
3

>  <Canc> (14)
3

>  <MolWeight> (14)
102.15

>  <Mouse_Male_Canc> (14)
3

>  <Mouse_Male_NTP> (14)
CE

>  <ChemName> (14)
Ethylenethiourea

>  <Rat_Male_NTP> (14)
CE

>  <Reference> (14)
NTP388

>  <Formula> (14)
C3H6N2S

>  <SMILES> (14)
S=C1NCCN1

>  <Rat_Female_NTP> (14)
CE

>  <CAS> (14)
96-45-7

>  <Mouse_Female_NTP> (14)
CE

>  <Synonyms> (14)
1,3-ethylene-2-thiourea; 1,3-Ethylenethiourea; Sanceller 22; sodium-22 neoprene accelerator; tetrahydro-2H-imidazole-2-thione; Vulkacit NPV/C; vulkacit npv/C2; warecure c; 2-Imidazolidimethione; 2-Imidazolidinethione; 2-mercapto-4,5-dihydroimidazole; 2-Mercaptoimidazoline; 2-thiol-dihydroglyoxaline; 4,5-dihydro-2-mercaptoimidazole; 4,5-dihydroimidazole-2(3H)-thione; Akrochem ETU-22; Ethylene Thiourea; Ethylene thiourea ; ETHYLENE THIOUREA (2-IMIDAZOLIDINETHIONE); ETU; imidizolidenethione; Imidazolidinethione; Imidazoline-2-thiol; Mercaptoimidazoline; Mercozen; NA-22; NA-22-D; N,N'-ethylenethiourea; pennac cra; rhodanin s 62; Robac 22.

$$$$
15


 12 12  0  0  0  0  0  0  0  0999 V2000
    2.7811  -52.0365   -0.2759 C   0  0  0  0  0  0  0  0  0  0  0  0
    2.8340  -53.5930   -0.5835 C   0  0  1  0  0  0  0  0  0  0  0  0
    4.3209  -53.5922   -0.3145 O   0  0  0  0  0  0  0  0  0  0  0  0
    4.1264  -52.3211    0.0579 C   0  0  0  0  0  0  0  0  0  0  0  0
    2.2003  -54.3076    0.6282 C   0  0  0  0  0  0  0  0  0  0  0  0
    4.9724  -51.5307    0.4888 O   0  0  0  0  0  0  0  0  0  0  0  0
    2.6365  -51.4336   -1.0605 H   0  0  0  0  0  0  0  0  0  0  0  0
    2.1874  -51.7527    0.4771 H   0  0  0  0  0  0  0  0  0  0  0  0
    2.4421  -53.9689   -1.4232 H   0  0  0  0  0  0  0  0  0  0  0  0
    2.2125  -55.2960    0.4767 H   0  0  0  0  0  0  0  0  0  0  0  0
    1.2555  -53.9998    0.7407 H   0  0  0  0  0  0  0  0  0  0  0  0
    2.7216  -54.0909    1.4536 H   0  0  0  0  0  0  0  0  0  0  0  0
  1  2  1  0  0  0  0
  2  3  1  0  0  0  0
  3  4  1  0  0  0  0
  4  1  1  0  0  0  0
  2  5  1  0  0  0  0
  4  6  2  0  0  0  0
  1  7  1  0  0  0  0
  1  8  1  0  0  0  0
  2  9  1  0  0  0  0
  5 10  1  0  0  0  0
  5 11  1  0  0  0  0
  5 12  1  0  0  0  0
M  END
>  <Substance ID> (15)
15

>  <Mouse_Female_Canc> (15)
3

>  <SAL> (15)
3

>  <Rat_Male_Canc> (15)
3

>  <TD50_Rat> (15)
13.8

>  <TD50_Mouse> (15)
ND

>  <Rat_Female_Canc> (15)
3

>  <Canc> (15)
3

>  <MolWeight> (15)
86.09

>  <Mouse_Male_Canc> (15)
3

>  <Mouse_Male_NTP> (15)
ND

>  <ChemName> (15)
beta-Butyrolactone

>  <Rat_Male_NTP> (15)
ND

>  <Reference> (15)
CPDB

>  <Formula> (15)
C4H6O2 

>  <SMILES> (15)
CC1CC(=O)O1

>  <Rat_Female_NTP> (15)
ND

>  <CAS> (15)
3068-88-0

>  <Mouse_Female_NTP> (15)
ND

>  <Synonyms> (15)
3-Hydroxybutanoic Acid beta-Lactone; 4-Methyl-2-oxetanone; Beta-BUTYROLACETONE.

$$$$
16


 22 23  0  0  0  0  0  0  0  0999 V2000
   36.2497   -7.1099   -0.2911 O   0  0  0  0  0  0  0  0  0  0  0  0
   35.3249   -5.9537   -0.1294 C   0  0  0  0  0  0  0  0  0  0  0  0
   37.4791   -6.5427   -0.1285 C   0  0  0  0  0  0  0  0  0  0  0  0
   38.6459   -7.1805   -0.1970 C   0  0  0  0  0  0  0  0  0  0  0  0
   39.8850   -6.3907   -0.0095 C   0  0  0  0  0  0  0  0  0  0  0  0
   39.7961   -5.0773    0.2385 C   0  0  0  0  0  0  0  0  0  0  0  0
   38.4807   -4.4418    0.3245 C   0  0  0  0  0  0  0  0  0  0  0  0
   36.1222   -4.7331    0.1605 O   0  0  0  0  0  0  0  0  0  0  0  0
   37.4023   -5.1892    0.1304 C   0  0  0  0  0  0  0  0  0  0  0  0
   41.0215   -4.2206    0.3964 C   0  0  0  0  0  0  0  0  0  0  0  0
   42.2338   -4.8974   -0.1645 C   0  0  0  0  0  0  0  0  0  0  0  0
   43.3526   -4.1938   -0.3312 C   0  0  0  0  0  0  0  0  0  0  0  0
   34.8036   -5.8210   -0.9724 H   0  0  0  0  0  0  0  0  0  0  0  0
   34.6960   -6.1309    0.6276 H   0  0  0  0  0  0  0  0  0  0  0  0
   38.6846   -8.1647   -0.3700 H   0  0  0  0  0  0  0  0  0  0  0  0
   40.7795   -6.8339   -0.0676 H   0  0  0  0  0  0  0  0  0  0  0  0
   38.3968   -3.4657    0.5252 H   0  0  0  0  0  0  0  0  0  0  0  0
   40.8788   -3.3561   -0.0855 H   0  0  0  0  0  0  0  0  0  0  0  0
   41.1697   -4.0402    1.3687 H   0  0  0  0  0  0  0  0  0  0  0  0
   42.2038   -5.8661   -0.4111 H   0  0  0  0  0  0  0  0  0  0  0  0
   44.1690   -4.6339   -0.7049 H   0  0  0  0  0  0  0  0  0  0  0  0
   43.3759   -3.2255   -0.0828 H   0  0  0  0  0  0  0  0  0  0  0  0
  1  2  1  0  0  0  0
  2  8  1  0  0  0  0
  3  1  1  0  0  0  0
  9  3  1  0  0  0  0
  3  4  2  0  0  0  0
  4  5  1  0  0  0  0
  5  6  2  0  0  0  0
  6  7  1  0  0  0  0
  7  9  2  0  0  0  0
  8  9  1  0  0  0  0
  6 10  1  0  0  0  0
 10 11  1  0  0  0  0
 11 12  2  0  0  0  0
  2 13  1  0  0  0  0
  2 14  1  0  0  0  0
  4 15  1  0  0  0  0
  5 16  1  0  0  0  0
  7 17  1  0  0  0  0
 10 18  1  0  0  0  0
 10 19  1  0  0  0  0
 11 20  1  0  0  0  0
 12 21  1  0  0  0  0
 12 22  1  0  0  0  0
M  END
>  <Substance ID> (16)
16

>  <Mouse_Female_Canc> (16)
3

>  <SAL> (16)
1

>  <Rat_Male_Canc> (16)
3

>  <TD50_Rat> (16)
441

>  <TD50_Mouse> (16)
51.3

>  <Rat_Female_Canc> (16)
3

>  <Canc> (16)
3

>  <MolWeight> (16)
162.19

>  <Mouse_Male_Canc> (16)
3

>  <Mouse_Male_NTP> (16)
ND

>  <ChemName> (16)
Safrole

>  <Rat_Male_NTP> (16)
ND

>  <Reference> (16)
CPDB

>  <Formula> (16)
C10H10O2 

>  <SMILES> (16)
C=CCC1=CC=C2C(=C1)OCO2

>  <Rat_Female_NTP> (16)
ND

>  <CAS> (16)
94-59-7

>  <Mouse_Female_NTP> (16)
ND

>  <Synonyms> (16)
1,2-Methylenedioxy-4-Allylbenzene; 1-allyl-3,4-methylenedioxybenzene; 3,4-methylenedioxy-allylbenzene; 3-Allyl-1,2-(methylenedioxy)benzene; m-allylpyrocatechin methylene ether; 4-Allyl-1,2-(methylenedioxy)-benzene; 4-allylcatechol methylene ether; 4-Allyl-procatecol; 4-allylpyrocatechol formaldehyde acetal; 4-allylpyrocatechol methylene ether; 5-(2-propenyl)-1,3-Benzodioxole; 5-allyl-1,3-benzodioxole; Benzodioxole, 5-(2-propenyl)-; Rhyuno; rhyuno oil; Safrene; safrole mf; shikimole; shikomol.

$$$$
17


 12 11  0  0  0  0  0  0  0  0999 V2000
   37.0242  -12.9261    0.0001 N   0  0  0  0  0  0  0  0  0  0  0  0
   35.6383  -12.7537    0.0003 C   0  0  0  0  0  0  0  0  0  0  0  0
   35.1571  -11.6150   -0.0000 O   0  0  0  0  0  0  0  0  0  0  0  0
   37.5828  -14.2477   -0.0002 C   0  0  0  0  0  0  0  0  0  0  0  0
   37.8896  -11.7815    0.0001 C   0  0  0  0  0  0  0  0  0  0  0  0
   35.0353  -13.5514    0.0007 H   0  0  0  0  0  0  0  0  0  0  0  0
   38.5810  -14.1882   -0.0003 H   0  0  0  0  0  0  0  0  0  0  0  0
   37.2785  -14.7385   -0.8167 H   0  0  0  0  0  0  0  0  0  0  0  0
   37.2787  -14.7388    0.8161 H   0  0  0  0  0  0  0  0  0  0  0  0
   38.8428  -12.0838   -0.0000 H   0  0  0  0  0  0  0  0  0  0  0  0
   37.7151  -11.2311    0.8166 H   0  0  0  0  0  0  0  0  0  0  0  0
   37.7149  -11.2310   -0.8162 H   0  0  0  0  0  0  0  0  0  0  0  0
  1  2  1  0  0  0  0
  2  3  2  0  0  0  0
  1  4  1  0  0  0  0
  1  5  1  0  0  0  0
  2  6  1  0  0  0  0
  4  7  1  0  0  0  0
  4  8  1  0  0  0  0
  4  9  1  0  0  0  0
  5 10  1  0  0  0  0
  5 11  1  0  0  0  0
  5 12  1  0  0  0  0
M  END
>  <Substance ID> (17)
17

>  <Mouse_Female_Canc> (17)
1

>  <SAL> (17)
1

>  <Rat_Male_Canc> (17)
1

>  <TD50_Rat> (17)
NP

>  <TD50_Mouse> (17)
NP

>  <Rat_Female_Canc> (17)
1

>  <Canc> (17)
1

>  <MolWeight> (17)
73.10

>  <Mouse_Male_Canc> (17)
1

>  <Mouse_Male_NTP> (17)
ND

>  <ChemName> (17)
Dimethylformamide

>  <Rat_Male_NTP> (17)
ND

>  <Reference> (17)
CPDB

>  <Formula> (17)
C3H7NO 

>  <SMILES> (17)
CN(C=O)C

>  <Rat_Female_NTP> (17)
ND

>  <CAS> (17)
68-12-2

>  <Mouse_Female_NTP> (17)
ND

>  <Synonyms> (17)
Dimethylformamide, N,N-; DMF; DMFA; Formyldimethylamine; N-formyldimethylamine; N,N-dimethylformamide; N,N'-Dimethylformamide; N,N-Dimethylmethanamide; U-4224.

$$$$
18
  

 46 44  0  0  0  0  0  0  0  0999 V2000
    6.3017  -11.0940    0.0808 C   0  0  0  0  0  0  0  0  0  0  0  0
    7.5667  -10.2337   -0.0995 C   0  0  0  0  0  0  0  0  0  0  0  0
    9.0365  -11.2622    0.1428 S   0  0  0  0  0  0  0  0  0  0  0  0
   10.5218  -10.2539   -0.0884 C   0  0  0  0  0  0  0  0  0  0  0  0
   11.7743  -11.1296    0.1025 C   0  0  0  0  0  0  0  0  0  0  0  0
   13.0353  -10.2723   -0.1110 C   0  0  2  0  0  0  0  0  0  0  0  0
   14.2764  -11.1029    0.0461 C   0  0  0  0  0  0  0  0  0  0  0  0
   15.5201  -10.4858    0.1344 O   0  0  0  0  0  0  0  0  0  0  0  0
   14.1928  -12.3350    0.0969 O   0  0  0  0  0  0  0  0  0  0  0  0
   13.0889   -9.1389    0.8237 N   0  0  0  0  0  0  0  0  0  0  0  0
   13.0298   -9.8488   -1.1256 H   0  0  0  0  0  0  0  0  0  0  0  0
    5.4898  -10.5259   -0.0530 H   0  0  0  0  0  0  0  0  0  0  0  0
    6.2894  -11.4802    1.0032 H   0  0  0  0  0  0  0  0  0  0  0  0
    6.3036  -11.8353   -0.5905 H   0  0  0  0  0  0  0  0  0  0  0  0
    7.5785   -9.8479   -1.0220 H   0  0  0  0  0  0  0  0  0  0  0  0
    7.5642   -9.4928    0.5721 H   0  0  0  0  0  0  0  0  0  0  0  0
   10.5223   -9.8689   -1.0113 H   0  0  0  0  0  0  0  0  0  0  0  0
   10.5285   -9.5125    0.5827 H   0  0  0  0  0  0  0  0  0  0  0  0
   11.7799  -11.5061    1.0288 H   0  0  0  0  0  0  0  0  0  0  0  0
   11.7629  -11.8771   -0.5617 H   0  0  0  0  0  0  0  0  0  0  0  0
   16.2314  -11.1813    0.2349 H   0  0  0  0  0  0  0  0  0  0  0  0
   13.9187   -8.6067    0.6558 H   0  0  0  0  0  0  0  0  0  0  0  0
   13.0975   -9.4812    1.7633 H   0  0  0  0  0  0  0  0  0  0  0  0
   14.8430  -18.0755   -0.0807 C   0  0  0  0  0  0  0  0  0  0  0  0
   16.1076  -17.2155    0.0998 C   0  0  0  0  0  0  0  0  0  0  0  0
   17.5784  -18.2439   -0.1424 S   0  0  0  0  0  0  0  0  0  0  0  0
   19.0628  -17.2352    0.0893 C   0  0  0  0  0  0  0  0  0  0  0  0
   20.3157  -18.1107   -0.1019 C   0  0  0  0  0  0  0  0  0  0  0  0
   21.5768  -17.2538    0.1105 C   0  0  1  0  0  0  0  0  0  0  0  0
   22.8173  -18.0844   -0.0459 C   0  0  0  0  0  0  0  0  0  0  0  0
   24.0614  -17.4676   -0.1340 O   0  0  0  0  0  0  0  0  0  0  0  0
   22.7337  -19.3171   -0.0963 O   0  0  0  0  0  0  0  0  0  0  0  0
   21.6307  -16.1200   -0.8236 N   0  0  0  0  0  0  0  0  0  0  0  0
   21.5709  -16.8299    1.1256 H   0  0  0  0  0  0  0  0  0  0  0  0
   14.0311  -17.5073    0.0530 H   0  0  0  0  0  0  0  0  0  0  0  0
   14.8448  -18.8168    0.5905 H   0  0  0  0  0  0  0  0  0  0  0  0
   14.8308  -18.4615   -1.0032 H   0  0  0  0  0  0  0  0  0  0  0  0
   16.1051  -16.4746   -0.5717 H   0  0  0  0  0  0  0  0  0  0  0  0
   16.1191  -16.8299    1.0224 H   0  0  0  0  0  0  0  0  0  0  0  0
   19.0694  -16.4935   -0.5814 H   0  0  0  0  0  0  0  0  0  0  0  0
   19.0632  -16.8505    1.0124 H   0  0  0  0  0  0  0  0  0  0  0  0
   20.3047  -18.8581    0.5625 H   0  0  0  0  0  0  0  0  0  0  0  0
   20.3208  -18.4876   -1.0282 H   0  0  0  0  0  0  0  0  0  0  0  0
   24.7726  -18.1634   -0.2341 H   0  0  0  0  0  0  0  0  0  0  0  0
   22.4609  -15.5885   -0.6559 H   0  0  0  0  0  0  0  0  0  0  0  0
   20.8293  -15.5374   -0.6880 H   0  0  0  0  0  0  0  0  0  0  0  0
  1  2  1  0  0  0  0
  2  3  1  0  0  0  0
  3  4  1  0  0  0  0
  4  5  1  0  0  0  0
  5  6  1  0  0  0  0
  6  7  1  0  0  0  0
  7  8  1  0  0  0  0
  7  9  2  0  0  0  0
  6 10  1  1  0  0  0
  6 11  1  6  0  0  0
  1 12  1  0  0  0  0
  1 13  1  0  0  0  0
  1 14  1  0  0  0  0
  2 15  1  0  0  0  0
  2 16  1  0  0  0  0
  4 17  1  0  0  0  0
  4 18  1  0  0  0  0
  5 19  1  0  0  0  0
  5 20  1  0  0  0  0
  8 21  1  0  0  0  0
 10 22  1  0  0  0  0
 10 23  1  0  0  0  0
 24 25  1  0  0  0  0
 25 26  1  0  0  0  0
 26 27  1  0  0  0  0
 27 28  1  0  0  0  0
 28 29  1  0  0  0  0
 29 30  1  0  0  0  0
 30 31  1  0  0  0  0
 30 32  2  0  0  0  0
 29 33  1  6  0  0  0
 29 34  1  1  0  0  0
 24 35  1  0  0  0  0
 24 36  1  0  0  0  0
 24 37  1  0  0  0  0
 25 38  1  0  0  0  0
 25 39  1  0  0  0  0
 27 40  1  0  0  0  0
 27 41  1  0  0  0  0
 28 42  1  0  0  0  0
 28 43  1  0  0  0  0
 31 44  1  0  0  0  0
 33 45  1  0  0  0  0
 33 46  1  0  0  0  0
M  END
>  <Substance ID> (18)
18

>  <Mouse_Female_Canc> (18)
3

>  <SAL> (18)
1

>  <Rat_Male_Canc> (18)
3

>  <TD50_Rat> (18)
9.11

>  <TD50_Mouse> (18)
71.4

>  <Rat_Female_Canc> (18)
ND

>  <Canc> (18)
3

>  <MolWeight> (18)
163.24

>  <Mouse_Male_Canc> (18)
3

>  <Mouse_Male_NTP> (18)
ND

>  <ChemName> (18)
DL-Ethionine 

>  <Rat_Male_NTP> (18)
ND

>  <Reference> (18)
CPDB

>  <Formula> (18)
C6H13NO2S.C6H13NO2S

>  <SMILES> (18)
O=C(O)[C@H](N)CCSCC.O=C(O)[C@@H](N)CCSCC

>  <Rat_Female_NTP> (18)
ND

>  <CAS> (18)
67-21-0

>  <Mouse_Female_NTP> (18)
ND

>  <Synonyms> (18)
(+-)-ethionine; 2-amino-4-(ethylthio)butyric acid; DL-2-amino-4-(ethylthio)butyric acid; DL-ethionine; S-ethyl DL-Homocysteine.

$$$$
19


 10 10  0  0  0  0  0  0  0  0999 V2000
   34.4612  -27.8730    0.4307 C   0  0  0  0  0  0  0  0  0  0  0  0
   35.7267  -27.8604   -0.4099 C   0  0  1  0  0  0  0  0  0  0  0  0
   34.7539  -26.7693   -0.4119 O   0  0  0  0  0  0  0  0  0  0  0  0
   36.8936  -27.3274    0.4417 C   0  0  0  0  0  0  0  0  0  0  0  0
   38.3930  -28.1216   -0.0505 Cl  0  0  0  0  0  0  0  0  0  0  0  0
   33.7128  -28.4948    0.2000 H   0  0  0  0  0  0  0  0  0  0  0  0
   34.5187  -27.7740    1.4241 H   0  0  0  0  0  0  0  0  0  0  0  0
   36.1582  -28.4922   -1.0538 H   0  0  0  0  0  0  0  0  0  0  0  0
   36.9800  -26.3402    0.3078 H   0  0  0  0  0  0  0  0  0  0  0  0
   36.7163  -27.5192    1.4070 H   0  0  0  0  0  0  0  0  0  0  0  0
  2  1  1  0  0  0  0
  3  2  1  0  0  0  0
  1  3  1  0  0  0  0
  2  4  1  0  0  0  0
  4  5  1  0  0  0  0
  1  6  1  0  0  0  0
  1  7  1  0  0  0  0
  2  8  1  0  0  0  0
  4  9  1  0  0  0  0
  4 10  1  0  0  0  0
M  END
>  <Substance ID> (19)
19

>  <Mouse_Female_Canc> (19)
1

>  <SAL> (19)
3

>  <Rat_Male_Canc> (19)
3

>  <TD50_Rat> (19)
2.96

>  <TD50_Mouse> (19)
NP

>  <Rat_Female_Canc> (19)
3

>  <Canc> (19)
3

>  <MolWeight> (19)
92.53

>  <Mouse_Male_Canc> (19)
ND

>  <Mouse_Male_NTP> (19)
ND

>  <ChemName> (19)
Epichlorohydrin

>  <Rat_Male_NTP> (19)
ND

>  <Reference> (19)
CPDB

>  <Formula> (19)
C3H5ClO

>  <SMILES> (19)
ClCC1CO1

>  <Rat_Female_NTP> (19)
ND

>  <CAS> (19)
106-89-8

>  <Mouse_Female_NTP> (19)
ND

>  <Synonyms> (19)
1,2-epoxy-3-chloropropane; 1-chloro-2,3-epoxypropane; 2,3-epoxypropyl chloride; 2-(Chloromethyl)oxirane; 3-Chloro-1,2-epoxypropane; 3-Chloro-1,2-propylene oxide; 3-Chloropropene-1,2-oxide; 3-Chloropropylene Oxide; 3-Chloropropyl epoxide; alpha-epichlorohydrin; Allyl chloride oxide; Cardolite NC-513; (Chloromethyl) Ethylene Oxide; (chloromethyl)oxirane; DL-a-epichlorohydrin; Ech; EPI; Epoxy-3-chloropropane; Epoxypropyl chloride; Glycerol Epichlorohydrin; Glycidyl chloride; (RS)-3-Chloro-1,2-epoxypropane; skekhg; gamma-Chloropropylene oxide.

$$$$
20


 16 16  0  0  0  0  0  0  0  0999 V2000
   36.8754  -34.6003    0.2321 C   0  0  0  0  0  0  0  0  0  0  0  0
   36.6493  -36.0613   -0.2096 C   0  0  0  0  0  0  0  0  0  0  0  0
   37.7995  -36.8603    0.2214 N   0  0  0  0  0  0  0  0  0  0  0  0
   39.1140  -36.3523   -0.1829 C   0  0  0  0  0  0  0  0  0  0  0  0
   39.2255  -34.8783    0.2573 C   0  0  0  0  0  0  0  0  0  0  0  0
   38.1295  -34.1157   -0.2922 O   0  0  0  0  0  0  0  0  0  0  0  0
   37.6427  -38.1999    0.0244 N   0  0  0  0  0  0  0  0  0  0  0  0
   38.5860  -38.8976   -0.0481 O   0  0  0  0  0  0  0  0  0  0  0  0
   36.1297  -34.0306   -0.1134 H   0  0  0  0  0  0  0  0  0  0  0  0
   36.8945  -34.5554    1.2309 H   0  0  0  0  0  0  0  0  0  0  0  0
   35.8150  -36.4160    0.2125 H   0  0  0  0  0  0  0  0  0  0  0  0
   36.5635  -36.1033   -1.2050 H   0  0  0  0  0  0  0  0  0  0  0  0
   39.8332  -36.8908    0.2563 H   0  0  0  0  0  0  0  0  0  0  0  0
   39.2090  -36.4157   -1.1763 H   0  0  0  0  0  0  0  0  0  0  0  0
   39.1966  -34.8276    1.2556 H   0  0  0  0  0  0  0  0  0  0  0  0
   40.0905  -34.4991   -0.0713 H   0  0  0  0  0  0  0  0  0  0  0  0
  1  2  1  0  0  0  0
  1  6  1  0  0  0  0
  2  3  1  0  0  0  0
  3  4  1  0  0  0  0
  4  5  1  0  0  0  0
  5  6  1  0  0  0  0
  3  7  1  0  0  0  0
  7  8  2  0  0  0  0
  1  9  1  0  0  0  0
  1 10  1  0  0  0  0
  2 11  1  0  0  0  0
  2 12  1  0  0  0  0
  4 13  1  0  0  0  0
  4 14  1  0  0  0  0
  5 15  1  0  0  0  0
  5 16  1  0  0  0  0
M  END
>  <Substance ID> (20)
20

>  <Mouse_Female_Canc> (20)
ND

>  <SAL> (20)
3

>  <Rat_Male_Canc> (20)
ND

>  <TD50_Rat> (20)
0.109

>  <TD50_Mouse> (20)
ND

>  <Rat_Female_Canc> (20)
3

>  <Canc> (20)
3

>  <MolWeight> (20)
116.12

>  <Mouse_Male_Canc> (20)
ND

>  <Mouse_Male_NTP> (20)
ND

>  <ChemName> (20)
N-Nitrosomorpholine

>  <Rat_Male_NTP> (20)
ND

>  <Reference> (20)
CPDB

>  <Formula> (20)
C4H8N2O2 

>  <SMILES> (20)
O=NN1CCOCC1

>  <Rat_Female_NTP> (20)
ND

>  <CAS> (20)
59-89-2

>  <Mouse_Female_NTP> (20)
ND

>  <Synonyms> (20)
4-nitrosomorpholine; Nitrosomorpholine; NMOR.

$$$$
21


 26 26  0  0  0  0  0  0  0  0999 V2000
   57.6476  -44.2121   -0.2871 C   0  0  0  0  0  0  0  0  0  0  0  0
   56.2807  -44.9138   -0.2155 C   0  0  0  0  0  0  0  0  0  0  0  0
   55.2527  -43.9098   -0.0507 O   0  0  0  0  0  0  0  0  0  0  0  0
   53.9488  -44.4367   -0.1241 C   0  0  0  0  0  0  0  0  0  0  0  0
   52.8270  -43.5342    0.0433 N   0  0  0  0  0  0  0  0  0  0  0  0
   51.4361  -43.9512   -0.0039 C   0  0  0  0  0  0  0  0  0  0  0  0
   49.0689  -43.4196    0.1003 C   0  0  0  0  0  0  0  0  0  0  0  0
   48.7317  -44.6947   -0.0837 C   0  0  0  0  0  0  0  0  0  0  0  0
   51.0560  -45.3575   -0.2085 C   0  0  0  0  0  0  0  0  0  0  0  0
   49.7722  -45.7090   -0.2441 C   0  0  0  0  0  0  0  0  0  0  0  0
   50.4831  -43.0330    0.1440 C   0  0  0  0  0  0  0  0  0  0  0  0
   47.8385  -42.2208    0.2850 Cl  0  0  0  0  0  0  0  0  0  0  0  0
   53.7685  -45.6401   -0.3452 O   0  0  0  0  0  0  0  0  0  0  0  0
   56.3027  -45.8883    0.9910 C   0  0  0  0  0  0  0  0  0  0  0  0
   58.3682  -44.8959   -0.4012 H   0  0  0  0  0  0  0  0  0  0  0  0
   57.8049  -43.7005    0.5576 H   0  0  0  0  0  0  0  0  0  0  0  0
   57.6595  -43.5830   -1.0645 H   0  0  0  0  0  0  0  0  0  0  0  0
   56.0909  -45.4297   -1.0508 H   0  0  0  0  0  0  0  0  0  0  0  0
   53.0222  -42.5662    0.2007 H   0  0  0  0  0  0  0  0  0  0  0  0
   47.7674  -44.9581   -0.1122 H   0  0  0  0  0  0  0  0  0  0  0  0
   51.7655  -46.0531   -0.3215 H   0  0  0  0  0  0  0  0  0  0  0  0
   49.5198  -46.6670   -0.3805 H   0  0  0  0  0  0  0  0  0  0  0  0
   50.7329  -42.0751    0.2856 H   0  0  0  0  0  0  0  0  0  0  0  0
   55.4219  -46.3571    1.0576 H   0  0  0  0  0  0  0  0  0  0  0  0
   56.4706  -45.3743    1.8323 H   0  0  0  0  0  0  0  0  0  0  0  0
   57.0297  -46.5627    0.8622 H   0  0  0  0  0  0  0  0  0  0  0  0
  1  2  1  0  0  0  0
  2  3  1  0  0  0  0
  3  4  1  0  0  0  0
  5  4  1  0  0  0  0
  5  6  1  0  0  0  0
  7  8  2  0  0  0  0
  9  6  1  0  0  0  0
  7 11  1  0  0  0  0
  8 10  1  0  0  0  0
 10  9  2  0  0  0  0
  6 11  2  0  0  0  0
  7 12  1  0  0  0  0
  4 13  2  0  0  0  0
  2 14  1  0  0  0  0
  1 15  1  0  0  0  0
  1 16  1  0  0  0  0
  1 17  1  0  0  0  0
  2 18  1  0  0  0  0
  5 19  1  0  0  0  0
  8 20  1  0  0  0  0
  9 21  1  0  0  0  0
 10 22  1  0  0  0  0
 11 23  1  0  0  0  0
 14 24  1  0  0  0  0
 14 25  1  0  0  0  0
 14 26  1  0  0  0  0
M  END
>  <Substance ID> (21)
21

>  <Mouse_Female_Canc> (21)
1

>  <SAL> (21)
ND

>  <Rat_Male_Canc> (21)
1

>  <TD50_Rat> (21)
NP

>  <TD50_Mouse> (21)
NP

>  <Rat_Female_Canc> (21)
1

>  <Canc> (21)
1

>  <MolWeight> (21)
213.67

>  <Mouse_Male_Canc> (21)
1

>  <Mouse_Male_NTP> (21)
ND

>  <ChemName> (21)
Isopropyl N-(3-Chlorophenyl) Carbamate

>  <Rat_Male_NTP> (21)
ND

>  <Reference> (21)
CPDB

>  <Formula> (21)
C10H12ClNO2 

>  <SMILES> (21)
O=C(NC1=CC=CC(=C1)Cl)OC(C)C

>  <Rat_Female_NTP> (21)
ND

>  <CAS> (21)
101-21-3

>  <Mouse_Female_NTP> (21)
ND

>  <Synonyms> (21)
O-isopropyl N-(3-chlorophenyl)carbamate; (3-chlorophenyl)carbamic acid 1-methylethyl ester; Spud-Nic; Spud-nip; Stopgerme-S; Taterpex; triherbicide cipc; Unicrop-CIPC; Beet; Beet-Kleen; Bud-Nip; Chlorocarbanilic acid isopropyl ester; Chloro-IPC; Chloropropham; Chlorpropham ; Chlorpropham CIPC; CIPC; Elbanil; Fasco WY-HOE; Furloe; Furloe Chloro IPC 4EC; Furlow Chloro IPC 20G; Isopropyl m-chlorocarbanilate; isopropyl 3-chlorophenylcarbamate; Jack wilson chloro 51 oil; Liro cipc; Metoxon; N-3-Chlorophenylisopropylcarbamate; Nexoval; Preweed; Sprout Nip.

$$$$
22


  9  9  0  0  0  0  0  0  0  0999 V2000
   37.5823  -55.0862   -0.0021 C   0  0  0  0  0  0  0  0  0  0  0  0
   38.4077  -56.1416   -0.0061 O   0  0  0  0  0  0  0  0  0  0  0  0
   39.4985  -55.1010    0.0107 C   0  0  0  0  0  0  0  0  0  0  0  0
   38.4189  -53.9407   -0.0094 C   0  0  0  0  0  0  0  0  0  0  0  0
   36.3463  -55.1055    0.0065 O   0  0  0  0  0  0  0  0  0  0  0  0
   40.0615  -55.1168    0.8370 H   0  0  0  0  0  0  0  0  0  0  0  0
   40.0891  -55.1194   -0.7960 H   0  0  0  0  0  0  0  0  0  0  0  0
   38.3793  -53.3555    0.8005 H   0  0  0  0  0  0  0  0  0  0  0  0
   38.3901  -53.3738   -0.8326 H   0  0  0  0  0  0  0  0  0  0  0  0
  1  2  1  0  0  0  0
  2  3  1  0  0  0  0
  3  4  1  0  0  0  0
  4  1  1  0  0  0  0
  1  5  2  0  0  0  0
  3  6  1  0  0  0  0
  3  7  1  0  0  0  0
  4  8  1  0  0  0  0
  4  9  1  0  0  0  0
M  END
>  <Substance ID> (22)
22

>  <Mouse_Female_Canc> (22)
3

>  <SAL> (22)
3

>  <Rat_Male_Canc> (22)
ND

>  <TD50_Rat> (22)
1.46

>  <TD50_Mouse> (22)
1.24

>  <Rat_Female_Canc> (22)
3

>  <Canc> (22)
3

>  <MolWeight> (22)
72.06

>  <Mouse_Male_Canc> (22)
3

>  <Mouse_Male_NTP> (22)
ND

>  <ChemName> (22)
beta-Propiolactone

>  <Rat_Male_NTP> (22)
ND

>  <Reference> (22)
CPDB

>  <Formula> (22)
C3H4O2 

>  <SMILES> (22)
O=C1CCO1

>  <Rat_Female_NTP> (22)
ND

>  <CAS> (22)
57-57-8

>  <Mouse_Female_NTP> (22)
ND

>  <Synonyms> (22)
1,3-Propiolactone; 2-Oxetanone; 3-hydroxypropionic acid beta-lactone; 3-hydroxypropionic acid lactone; 3-Propiolactone; beta3-Propiolactone; BPL; betaprone; beta-propionolactone; Beta-PROPIOLACTONE (2-OXETANONE); beta-Propiolactone; Hydracrylic Acid beta Lactone; oxetan-2-one; Oxetanone; Propionolactone; Propanolide; propiolactone.

$$$$
23


  8  7  0  0  0  0  0  0  0  0999 V2000
   39.0911  -63.0457    0.0161 C   0  0  0  0  0  0  0  0  0  0  0  0
   40.1892  -63.4192    1.3491 Cl  0  0  0  0  0  0  0  0  0  0  0  0
   39.6103  -61.5530   -0.7742 Cl  0  0  0  0  0  0  0  0  0  0  0  0
   39.1130  -64.3699   -1.1536 Cl  0  0  0  0  0  0  0  0  0  0  0  0
   37.6624  -62.8671    0.5626 C   0  0  0  0  0  0  0  0  0  0  0  0
   37.0406  -62.6557   -0.1914 H   0  0  0  0  0  0  0  0  0  0  0  0
   37.6496  -62.1177    1.2247 H   0  0  0  0  0  0  0  0  0  0  0  0
   37.3681  -63.7117    1.0100 H   0  0  0  0  0  0  0  0  0  0  0  0
  1  2  1  0  0  0  0
  1  3  1  0  0  0  0
  1  4  1  0  0  0  0
  1  5  1  0  0  0  0
  5  6  1  0  0  0  0
  5  7  1  0  0  0  0
  5  8  1  0  0  0  0
M  END
>  <Substance ID> (23)
23

>  <Mouse_Female_Canc> (23)
1

>  <SAL> (23)
3

>  <Rat_Male_Canc> (23)
1

>  <TD50_Rat> (23)
NP

>  <TD50_Mouse> (23)
NP

>  <Rat_Female_Canc> (23)
1

>  <Canc> (23)
1

>  <MolWeight> (23)
133.41

>  <Mouse_Male_Canc> (23)
1

>  <Mouse_Male_NTP> (23)
ND

>  <ChemName> (23)
1,1,1-Trichloroethane

>  <Rat_Male_NTP> (23)
ND

>  <Reference> (23)
CPDB

>  <Formula> (23)
C2H3Cl3 

>  <SMILES> (23)
CC(Cl)(Cl)Cl

>  <Rat_Female_NTP> (23)
ND

>  <CAS> (23)
71-55-6

>  <Mouse_Female_NTP> (23)
ND

>  <Synonyms> (23)
1,1,1-tce; 1,1,1-TRICHLOROETHANE (METHYL CHLOROFORM); 1,1-Trichloroethane; aerothene tt; alpha-trichloroethane; Chlorothene; Chlorothene NU; Chlorothene VG; Methyl Chloroform; Methyltrichloromethane; solvent 111; Trichloroethane, 1,1,1-; tri-ethane.

$$$$
24


 13 12  0  0  0  0  0  0  0  0999 V2000
   39.3180  -74.8041   -0.0907 N   0  0  0  0  0  0  0  0  0  0
   40.4682  -73.9574    0.0022 C   0  0  0  0  0  0  0  0  0  0
   40.3271  -72.7380    0.1496 O   0  0  0  0  0  0  0  0  0  0
   41.7446  -74.5069   -0.0730 O   0  0  0  0  0  0  0  0  0  0
   42.7201  -73.4676    0.0443 C   0  0  0  0  0  0  0  0  0  0
   44.1308  -74.0757   -0.0341 C   0  0  0  0  0  0  0  0  0  0
   39.4315  -75.7904   -0.2100 H   0  0  0  0  0  0  0  0  0  0
   38.4008  -74.4093   -0.0365 H   0  0  0  0  0  0  0  0  0  0
   42.5986  -72.8111   -0.7002 H   0  0  0  0  0  0  0  0  0  0
   42.6066  -73.0017    0.9219 H   0  0  0  0  0  0  0  0  0  0
   44.8127  -73.3489    0.0480 H   0  0  0  0  0  0  0  0  0  0
   44.2451  -74.5418   -0.9114 H   0  0  0  0  0  0  0  0  0  0
   44.2531  -74.7324    0.7102 H   0  0  0  0  0  0  0  0  0  0
  1  2  1  0  0  0
  2  3  2  0  0  0
  2  4  1  0  0  0
  4  5  1  0  0  0
  5  6  1  0  0  0
  1  7  1  0  0  0
  1  8  1  0  0  0
  5  9  1  0  0  0
  5 10  1  0  0  0
  6 11  1  0  0  0
  6 12  1  0  0  0
  6 13  1  0  0  0
M  END
>  <Substance ID> (24)
24

>  <Mouse_Female_Canc> (24)
3

>  <SAL> (24)
1

>  <Rat_Male_Canc> (24)
3

>  <TD50_Rat> (24)
41.3

>  <TD50_Mouse> (24)
16.9

>  <Rat_Female_Canc> (24)
3

>  <Canc> (24)
3

>  <MolWeight> (24)
89.09

>  <Mouse_Male_Canc> (24)
3

>  <Mouse_Male_NTP> (24)
ND

>  <ChemName> (24)
Urethane

>  <Rat_Male_NTP> (24)
ND

>  <Reference> (24)
CPDB

>  <Formula> (24)
C3H7N1O2 

>  <SMILES> (24)
NC(=O)OCC

>  <Rat_Female_NTP> (24)
ND

>  <CAS> (24)
51-79-6

>  <Mouse_Female_NTP> (24)
ND

>  <Synonyms> (24)
o-Ethyl carbamate; o-ethylurethane; a 11032; Carbamic acid ethyl ester; Ethyl carbamate; ethyl ester of carbamic acid; Ethyl urethane; leucethane; leucothane; pracarbamin; u-compound; X 41.

$$$$
25


 12 11  0  0  0  0  0  0  0  0999 V2000
   39.5931  -79.4276    0.0006 N   0  0  0  0  0  0  0  0  0  0  0  0
   39.5588  -80.8238    0.0003 C   0  0  0  0  0  0  0  0  0  0  0  0
   38.4726  -81.4151    0.0003 O   0  0  0  0  0  0  0  0  0  0  0  0
   41.0336  -81.7249   -0.0008 Cl  0  0  0  0  0  0  0  0  0  0  0  0
   40.8545  -78.7411    0.0003 C   0  0  0  0  0  0  0  0  0  0  0  0
   38.3695  -78.6787   -0.0000 C   0  0  0  0  0  0  0  0  0  0  0  0
   40.6972  -77.7536    0.0006 H   0  0  0  0  0  0  0  0  0  0  0  0
   41.3726  -78.9953   -0.8165 H   0  0  0  0  0  0  0  0  0  0  0  0
   41.3734  -78.9958    0.8163 H   0  0  0  0  0  0  0  0  0  0  0  0
   38.5768  -77.7005    0.0004 H   0  0  0  0  0  0  0  0  0  0  0  0
   37.8382  -78.9067    0.8160 H   0  0  0  0  0  0  0  0  0  0  0  0
   37.8393  -78.9062   -0.8168 H   0  0  0  0  0  0  0  0  0  0  0  0
  1  2  1  0  0  0  0
  2  3  2  0  0  0  0
  2  4  1  0  0  0  0
  1  5  1  0  0  0  0
  1  6  1  0  0  0  0
  5  7  1  0  0  0  0
  5  8  1  0  0  0  0
  5  9  1  0  0  0  0
  6 10  1  0  0  0  0
  6 11  1  0  0  0  0
  6 12  1  0  0  0  0
M  END
>  <Substance ID> (25)
25

>  <Mouse_Female_Canc> (25)
3

>  <SAL> (25)
3

>  <Rat_Male_Canc> (25)
ND

>  <TD50_Rat> (25)
ND

>  <TD50_Mouse> (25)
5.37

>  <Rat_Female_Canc> (25)
ND

>  <Canc> (25)
3

>  <MolWeight> (25)
107.54

>  <Mouse_Male_Canc> (25)
ND

>  <Mouse_Male_NTP> (25)
ND

>  <ChemName> (25)
Dimethylcarbamoyl Chloride

>  <Rat_Male_NTP> (25)
ND

>  <Reference> (25)
CPDB

>  <Formula> (25)
C3H6ClNO 

>  <SMILES> (25)
O=C(N(C)C)Cl

>  <Rat_Female_NTP> (25)
ND

>  <CAS> (25)
79-44-7

>  <Mouse_Female_NTP> (25)
ND

>  <Synonyms> (25)
(dimethylamino)carbonyl chloride; Dimethylcarbamic Acid Chloride; Dimethylcarbamic Chloride; Dimethyl carbamyl chloride; chloroformic acid dimethylamide; DMCC; N,N-Dimethylcarbamoyl chloride; N,N-Dimethylcarbamyl Chloride; TL 389.

$$$$
26


 29 29  0  0  0  0  0  0  0  0999 V2000
    1.3999   -4.2670    0.2124 C   0  0  0  0  0  0  0  0  0  0  0  0
    1.9530   -5.6242   -0.1982 C   0  0  0  0  0  0  0  0  0  0  0  0
    3.2514   -5.8080    0.4241 O   0  0  0  0  0  0  0  0  0  0  0  0
    4.1631   -4.6065    0.2246 P   0  0  2  0  0  0  0  0  0  0  0  0
    3.5865   -3.6369   -0.8339 N   0  0  0  0  0  0  0  0  0  0  0  0
    2.2169   -3.1687   -0.4941 C   0  0  0  0  0  0  0  0  0  0  0  0
    5.6009   -5.0021   -0.0108 N   0  0  0  0  0  0  0  0  0  0  0  0
    4.1224   -3.9614    1.3986 O   0  0  0  0  0  0  0  0  0  0  0  0
    6.6384   -3.9921    0.1147 C   0  0  0  0  0  0  0  0  0  0  0  0
    7.7958   -4.2376   -0.8870 C   0  0  0  0  0  0  0  0  0  0  0  0
    9.0937   -3.0839   -0.5916 Cl  0  0  0  0  0  0  0  0  0  0  0  0
    5.9332   -6.3701   -0.3567 C   0  0  0  0  0  0  0  0  0  0  0  0
    6.7612   -7.0336    0.7764 C   0  0  0  0  0  0  0  0  0  0  0  0
    7.3553   -8.6007    0.2245 Cl  0  0  0  0  0  0  0  0  0  0  0  0
    0.4396   -4.1989   -0.0582 H   0  0  0  0  0  0  0  0  0  0  0  0
    1.4759   -4.1583    1.2035 H   0  0  0  0  0  0  0  0  0  0  0  0
    1.3304   -6.3461    0.1039 H   0  0  0  0  0  0  0  0  0  0  0  0
    2.0490   -5.6609   -1.1929 H   0  0  0  0  0  0  0  0  0  0  0  0
    4.0807   -3.3559   -1.6565 H   0  0  0  0  0  0  0  0  0  0  0  0
    1.7461   -2.9053   -1.3361 H   0  0  0  0  0  0  0  0  0  0  0  0
    2.2863   -2.3760    0.1115 H   0  0  0  0  0  0  0  0  0  0  0  0
    6.2394   -3.0928   -0.0642 H   0  0  0  0  0  0  0  0  0  0  0  0
    7.0038   -4.0159    1.0453 H   0  0  0  0  0  0  0  0  0  0  0  0
    8.1449   -5.1673   -0.7697 H   0  0  0  0  0  0  0  0  0  0  0  0
    7.4565   -4.1238   -1.8208 H   0  0  0  0  0  0  0  0  0  0  0  0
    5.0892   -6.8887   -0.4938 H   0  0  0  0  0  0  0  0  0  0  0  0
    6.4688   -6.3747   -1.2011 H   0  0  0  0  0  0  0  0  0  0  0  0
    7.5361   -6.4467    1.0112 H   0  0  0  0  0  0  0  0  0  0  0  0
    6.1827   -7.1608    1.5821 H   0  0  0  0  0  0  0  0  0  0  0  0
  1  2  1  0  0  0  0
  1  6  1  0  0  0  0
  2  3  1  0  0  0  0
  3  4  1  0  0  0  0
  4  5  1  0  0  0  0
  5  6  1  0  0  0  0
  4  7  1  0  0  0  0
  4  8  2  0  0  0  0
  7  9  1  0  0  0  0
  9 10  1  0  0  0  0
 10 11  1  0  0  0  0
  7 12  1  0  0  0  0
 12 13  1  0  0  0  0
 13 14  1  0  0  0  0
  1 15  1  0  0  0  0
  1 16  1  0  0  0  0
  2 17  1  0  0  0  0
  2 18  1  0  0  0  0
  5 19  1  0  0  0  0
  6 20  1  0  0  0  0
  6 21  1  0  0  0  0
  9 22  1  0  0  0  0
  9 23  1  0  0  0  0
 10 24  1  0  0  0  0
 10 25  1  0  0  0  0
 12 26  1  0  0  0  0
 12 27  1  0  0  0  0
 13 28  1  0  0  0  0
 13 29  1  0  0  0  0
M  END
>  <Substance ID> (26)
26

>  <Mouse_Female_Canc> (26)
3

>  <SAL> (26)
3

>  <Rat_Male_Canc> (26)
3

>  <TD50_Rat> (26)
2.21

>  <TD50_Mouse> (26)
5.96

>  <Rat_Female_Canc> (26)
3

>  <Canc> (26)
3

>  <MolWeight> (26)
261.09

>  <Mouse_Male_Canc> (26)
3

>  <Mouse_Male_NTP> (26)
ND

>  <ChemName> (26)
Cyclophosphamide

>  <Rat_Male_NTP> (26)
ND

>  <Reference> (26)
CPDB

>  <Formula> (26)
C7H15Cl2N2O2P 

>  <SMILES> (26)
ClCCN(CCCl)[P]1(=O)NCCCO1

>  <Rat_Female_NTP> (26)
ND

>  <CAS> (26)
50-18-0

>  <Mouse_Female_NTP> (26)
ND

>  <Synonyms> (26)
1-(bis(2-chloroethyl)amino)-1-oxo-2-aza-5-oxaphosphoridine; 2-(di(2-chloroethyl)amino)-1-oxa-3-aza-2-phosphacyclohexane 2-oxide; Enduxan; Genoxal; Mitoxan; N-bis(beta-Chloroethyl)-N'O,trimethylenephosphoric acid ester diamide; Neosar; N,N-Bis(2-chloroethyl)-N',O-propylenephosphoric acid ester diamide; N,N-Di(2-chloroethyl)-N,O-propylene-phosphoric acid ester diamide; N,N-bis(2-chloroethyl)-N'-(3-hydroxypropyl)phosphorodiamidic acid intramol. ester; N,N-Bis(2-Chloroethyl)tetrahydro-2H-1,3,2-Oxazaphosphorin-2-Amine, 2-Oxide; N,N-bis(beta-Chloroethyl)-N',O-propylenephosphoric acid ester diamide; N,N-Bis(beta-chloroethyl)-N',O-trimethylenephosphoric acid ester diamide; Procytox; Semdoxan; Sendoxan; Senduxan; sk 20501; tatrahydro-2-(Bis(2-chloroethyl)amino)-2H-1,3,2-oxazaphosphorine 2-oxide; tetrahydro-N,N-bis(2-chloroethyl)-2H-1,3,2-oxazaphosphorin-2-amine 2-oxide; 2-(bis(2-Chloroethyl)-amino)tetrahydro-2H-1,3,2-oxazaphosphorine 2-oxide; ASTA; Asta B 518; B 518; bis(2-Chloroethyl)phosphamide cyclic propanolamide 

$$$$
27


 10 10  0  0  0  0  0  0  0  0999 V2000
    4.9058  -15.4035   -0.0002 C   0  0  0  0  0  0  0  0  0  0
    5.2218  -14.1742   -0.0006 N   0  0  0  0  0  0  0  0  0  0
    4.0843  -13.4775    0.0003 N   0  0  0  0  0  0  0  0  0  0
    3.0227  -14.3950    0.0005 C   0  0  0  0  0  0  0  0  0  0
    3.5245  -15.5618    0.0004 N   0  0  0  0  0  0  0  0  0  0
    5.8228  -16.4566   -0.0000 N   0  0  0  0  0  0  0  0  0  0
    4.0028  -12.4808    0.0006 H   0  0  0  0  0  0  0  0  0  0
    2.0481  -14.1709    0.0007 H   0  0  0  0  0  0  0  0  0  0
    5.4980  -17.4024    0.0003 H   0  0  0  0  0  0  0  0  0  0
    6.8043  -16.2650   -0.0003 H   0  0  0  0  0  0  0  0  0  0
  1  2  2  0  0  0
  2  3  1  0  0  0
  3  4  1  0  0  0
  4  5  2  0  0  0
  1  5  1  0  0  0
  1  6  1  0  0  0
  3  7  1  0  0  0
  4  8  1  0  0  0
  6  9  1  0  0  0
  6 10  1  0  0  0
M  END
>  <Substance ID> (27)
27

>  <Mouse_Female_Canc> (27)
3

>  <SAL> (27)
1

>  <Rat_Male_Canc> (27)
3

>  <TD50_Rat> (27)
9.94

>  <TD50_Mouse> (27)
25.3

>  <Rat_Female_Canc> (27)
3

>  <Canc> (27)
3

>  <MolWeight> (27)
84.08

>  <Mouse_Male_Canc> (27)
3

>  <Mouse_Male_NTP> (27)
ND

>  <ChemName> (27)
3-Aminotriazole

>  <Rat_Male_NTP> (27)
ND

>  <Reference> (27)
CPDB

>  <Formula> (27)
C2H4N4 

>  <SMILES> (27)
n1c(nnc1)N

>  <Rat_Female_NTP> (27)
ND

>  <CAS> (27)
61-82-5

>  <Mouse_Female_NTP> (27)
ND

>  <Synonyms> (27)
Triazol-3-amine; Diurol; Amino-1,2,4-triazole; Amino-s-triazole; Weedazole; weedazol super; weedazol t; Vorox; ramizol; 3,A-T; azaplant; weedar ads; weedazin; weedoclor; aminotriazol-spritzpulver; azaplant kombi; campaprim a 1544; elmasil; herbidal total; kleer-lot; orga-414; radoxone tl; weedex granulat; X-ALL; aminotriazole (plant regulator); amitril t.l.; amitrol 90; amizol d; amizol dp nau; amizol f; domatol 88; emisol 50; emisol f; fenavar; vorox aa; vorox as; weedar at; weedazin arginit; weedazol gp2; 2-amino-1,3,4-triazole; amitol; cytrole; domatol; emisol; triazolamine; 1H-1,2,4-Triazol-3-amine; Amitrol; 3-Amino-1H-1,2,4-Triazole; Aminotriazole; 3-Amino-s-Triazole; 3-amino-1,2,4-triazole; ATA; Amizol; AT-90; Amino Triazole Weedkiller 90; Amerol; Azolan; Herbizole; AMITROL (3-AMINO-1,2,4-TRIAZOLE).

$$$$
28


 29 30  0  0  0  0  0  0  0  0999 V2000
    3.9617  -23.4737    0.5165 C   0  0  0  0  0  0  0  0  0  0  0  0
    4.8851  -24.4346    0.4513 C   0  0  0  0  0  0  0  0  0  0  0  0
    6.4491  -22.9494   -0.6748 C   0  0  0  0  0  0  0  0  0  0  0  0
    5.4232  -21.9138   -0.6003 C   0  0  0  0  0  0  0  0  0  0  0  0
    6.1951  -24.1604   -0.1694 C   0  0  0  0  0  0  0  0  0  0  0  0
    4.2494  -22.1537   -0.0303 C   0  0  0  0  0  0  0  0  0  0  0  0
    7.7643  -22.5489   -1.3378 C   0  0  0  0  0  0  0  0  0  0  0  0
    3.0717  -20.8942    0.0632 Cl  0  0  0  0  0  0  0  0  0  0  0  0
    2.7205  -23.7256    1.1045 N   0  0  0  0  0  0  0  0  0  0  0  0
    9.0779  -22.9525   -0.6738 C   0  0  0  0  0  0  0  0  0  0  0  0
    9.3291  -24.1647   -0.1698 C   0  0  0  0  0  0  0  0  0  0  0  0
   11.5659  -23.4825    0.5194 C   0  0  0  0  0  0  0  0  0  0  0  0
   11.2745  -22.1674   -0.0321 C   0  0  0  0  0  0  0  0  0  0  0  0
   10.6392  -24.4417    0.4523 C   0  0  0  0  0  0  0  0  0  0  0  0
   10.1068  -21.9192   -0.5969 C   0  0  0  0  0  0  0  0  0  0  0  0
   12.4608  -20.9066    0.0679 Cl  0  0  0  0  0  0  0  0  0  0  0  0
   12.8058  -23.7390    1.1070 N   0  0  0  0  0  0  0  0  0  0  0  0
    4.6890  -25.3418    0.8235 H   0  0  0  0  0  0  0  0  0  0  0  0
    5.6079  -21.0094   -0.9847 H   0  0  0  0  0  0  0  0  0  0  0  0
    6.8905  -24.8779   -0.2118 H   0  0  0  0  0  0  0  0  0  0  0  0
    7.7642  -22.9482   -2.2547 H   0  0  0  0  0  0  0  0  0  0  0  0
    7.7655  -21.5513   -1.4082 H   0  0  0  0  0  0  0  0  0  0  0  0
    2.0327  -23.0012    1.1503 H   0  0  0  0  0  0  0  0  0  0  0  0
    2.5194  -24.6304    1.4798 H   0  0  0  0  0  0  0  0  0  0  0  0
    8.6327  -24.8810   -0.2139 H   0  0  0  0  0  0  0  0  0  0  0  0
   10.8330  -25.3495    0.8242 H   0  0  0  0  0  0  0  0  0  0  0  0
    9.9250  -21.0122   -0.9767 H   0  0  0  0  0  0  0  0  0  0  0  0
   13.0024  -24.6437    1.4849 H   0  0  0  0  0  0  0  0  0  0  0  0
   13.4974  -23.0180    1.1501 H   0  0  0  0  0  0  0  0  0  0  0  0
  1  2  2  0  0  0  0
  3  4  1  0  0  0  0
  1  6  1  0  0  0  0
  2  5  1  0  0  0  0
  5  3  2  0  0  0  0
  4  6  2  0  0  0  0
  3  7  1  0  0  0  0
  6  8  1  0  0  0  0
  1  9  1  0  0  0  0
  7 10  1  0  0  0  0
 10 11  2  0  0  0  0
 12 13  1  0  0  0  0
 10 15  1  0  0  0  0
 11 14  1  0  0  0  0
 14 12  2  0  0  0  0
 13 15  2  0  0  0  0
 13 16  1  0  0  0  0
 12 17  1  0  0  0  0
  2 18  1  0  0  0  0
  4 19  1  0  0  0  0
  5 20  1  0  0  0  0
  7 21  1  0  0  0  0
  7 22  1  0  0  0  0
  9 23  1  0  0  0  0
  9 24  1  0  0  0  0
 11 25  1  0  0  0  0
 14 26  1  0  0  0  0
 15 27  1  0  0  0  0
 17 28  1  0  0  0  0
 17 29  1  0  0  0  0
M  END
>  <Substance ID> (28)
28

>  <Mouse_Female_Canc> (28)
3

>  <SAL> (28)
3

>  <Rat_Male_Canc> (28)
3

>  <TD50_Rat> (28)
19.3

>  <TD50_Mouse> (28)
ND

>  <Rat_Female_Canc> (28)
3

>  <Canc> (28)
3

>  <MolWeight> (28)
267.16

>  <Mouse_Male_Canc> (28)
ND

>  <Mouse_Male_NTP> (28)
ND

>  <ChemName> (28)
4,4'-Methylenebis(2-chloroaniline)

>  <Rat_Male_NTP> (28)
ND

>  <Reference> (28)
CPDB

>  <Formula> (28)
C13H12Cl2N2 

>  <SMILES> (28)
ClC1=C(C=CC(=C1)CC2=CC(=C(C=C2)N)Cl)N

>  <Rat_Female_NTP> (28)
ND

>  <CAS> (28)
101-14-4

>  <Mouse_Female_NTP> (28)
ND

>  <Synonyms> (28)
2,2'Dichloro-4,4'-methylene dianiline; 3,3'-Dichloro-4,4'-diaminodiphenyl methane; 4,4'-diamino-3,3'-dichlorodiphenylmethane; 4,4-Methylene bis(2-chloroaniline); 4,4'-Methylenebis-(2-Chlorobenzenamine); p,p'-methylenebis(alpha-chloroaniline); di(4-amino-3-chlorophenyl)methane; Bis Amine; bis-amine A; BOCA; Cl-mda; curalin M; Curene 442; Cyanaset; DACPM; MBOCA; methylene-bis-orthochloroaniline; Methylene-bis(2-chloroaniline), 4,4'-; MOCA.

$$$$
29


 17 16  0  0  0  0  0  0  0  0999 V2000
    2.9309  -30.0636    0.0002 C   0  0  0  0  0  0  0  0  0  0
    4.0893  -30.8340   -0.0067 O   0  0  0  0  0  0  0  0  0  0
    2.9936  -28.8288    0.0067 O   0  0  0  0  0  0  0  0  0  0
    5.2418  -29.9679   -0.0014 C   0  0  0  0  0  0  0  0  0  0
    6.4436  -30.7554   -0.0129 N   0  0  0  0  0  0  0  0  0  0
    7.5393  -30.2298    0.0006 N   0  3  0  0  0  0  0  0  0  0
    7.6722  -28.9012    0.0265 O   0  5  0  0  0  0  0  0  0  0
    8.7078  -31.0485   -0.0104 C   0  0  0  0  0  0  0  0  0  0
    1.5956  -30.7385   -0.0004 C   0  0  0  0  0  0  0  0  0  0
    5.2207  -29.3829   -0.8122 H   0  0  0  0  0  0  0  0  0  0
    5.2256  -29.3993    0.8210 H   0  0  0  0  0  0  0  0  0  0
    9.5221  -30.4683    0.0032 H   0  0  0  0  0  0  0  0  0  0
    8.7136  -31.6108   -0.8373 H   0  0  0  0  0  0  0  0  0  0
    8.7078  -31.6410    0.7952 H   0  0  0  0  0  0  0  0  0  0
    0.8725  -30.0478    0.0050 H   0  0  0  0  0  0  0  0  0  0
    1.5122  -31.3142    0.8130 H   0  0  0  0  0  0  0  0  0  0
    1.5084  -31.3052   -0.8198 H   0  0  0  0  0  0  0  0  0  0
  1  2  1  0  0  0
  1  3  2  0  0  0
  2  4  1  0  0  0
  4  5  1  0  0  0
  5  6  2  0  0  0
  6  7  1  0  0  0
  6  8  1  0  0  0
  1  9  1  0  0  0
  4 10  1  0  0  0
  4 11  1  0  0  0
  8 12  1  0  0  0
  8 13  1  0  0  0
  8 14  1  0  0  0
  9 15  1  0  0  0
  9 16  1  0  0  0
  9 17  1  0  0  0
M  END
>  <Substance ID> (29)
29

>  <Mouse_Female_Canc> (29)
3

>  <SAL> (29)
3

>  <Rat_Male_Canc> (29)
3

>  <TD50_Rat> (29)
ND

>  <TD50_Mouse> (29)
ND

>  <Rat_Female_Canc> (29)
3

>  <Canc> (29)
3

>  <MolWeight> (29)
132.12

>  <Mouse_Male_Canc> (29)
3

>  <Mouse_Male_NTP> (29)
ND

>  <ChemName> (29)
Methylazoxymethanol Acetate

>  <Rat_Male_NTP> (29)
ND

>  <Reference> (29)
Toxnet

>  <Formula> (29)
C4H8N2O3 

>  <SMILES> (29)
CC(=O)OCN=N(C)=O

>  <Rat_Female_NTP> (29)
ND

>  <CAS> (29)
592-62-1

>  <Mouse_Female_NTP> (29)
ND

>  <Synonyms> (29)
Cycasin acetate; MAM AC; mam acetate; Methylazoxymethyl acetate; (methyl-ONN-azoxy)methanol, acetate ester.

$$$$
30


 45 46  0  0  0  0  0  0  0  0999 V2000
   -0.0958    1.4944    0.3898 C   0  0  3  0  0  0  0  0  0  0  0  0
   -0.3149    0.0947    0.5760 O   0  0  0  0  0  0  0  0  0  0  0  0
    1.1758    1.7086   -0.2338 O   0  0  0  0  0  0  0  0  0  0  0  0
   -0.0700    2.2072    1.7590 C   0  0  3  0  0  0  0  0  0  0  0  0
   -1.2071    2.0820   -0.4825 C   0  0  0  0  0  0  0  0  0  0  0  0
    0.0409   -0.5459   -0.6509 C   0  0  3  0  0  0  0  0  0  0  0  0
    2.0008    2.5330    0.6048 C   0  0  3  0  0  0  0  0  0  0  0  0
    1.4528    2.3271    2.0394 C   0  0  3  0  0  0  0  0  0  0  0  0
   -0.7101    1.4116    2.7586 O   0  0  0  0  0  0  0  0  0  0  0  0
   -1.1120    1.5428   -1.8024 O   0  0  0  0  0  0  0  0  0  0  0  0
    1.3948   -0.9890   -0.5792 O   0  0  0  0  0  0  0  0  0  0  0  0
   -0.8842   -1.7418   -0.8874 C   0  0  3  0  0  0  0  0  0  0  0  0
    3.4601    2.0806    0.5236 C   0  0  0  0  0  0  0  0  0  0  0  0
    1.7368    3.4574    2.8663 O   0  0  0  0  0  0  0  0  0  0  0  0
    1.5319   -1.7669    0.6085 C   0  0  3  0  0  0  0  0  0  0  0  0
   -0.7526   -2.7154    0.2893 C   0  0  3  0  0  0  0  0  0  0  0  0
   -2.2360   -1.2888   -0.9842 O   0  0  0  0  0  0  0  0  0  0  0  0
    3.9640    2.3308   -0.7900 O   0  0  0  0  0  0  0  0  0  0  0  0
    0.7288   -3.0627    0.4751 C   0  0  3  0  0  0  0  0  0  0  0  0
    3.0081   -2.1037    0.8282 C   0  0  0  0  0  0  0  0  0  0  0  0
   -1.4931   -3.9056    0.0120 O   0  0  0  0  0  0  0  0  0  0  0  0
    0.8909   -3.8495    1.6570 O   0  0  0  0  0  0  0  0  0  0  0  0
    3.7353   -0.9037    1.0989 O   0  0  0  0  0  0  0  0  0  0  0  0
   -0.5309    3.1927    1.6921 H   0  0  0  0  0  0  0  0  0  0  0  0
   -2.1771    1.8278   -0.0552 H   0  0  0  0  0  0  0  0  0  0  0  0
   -1.1013    3.1661   -0.5243 H   0  0  0  0  0  0  0  0  0  0  0  0
   -0.0657    0.1616   -1.4732 H   0  0  0  0  0  0  0  0  0  0  0  0
    1.9127    3.5790    0.3111 H   0  0  0  0  0  0  0  0  0  0  0  0
    1.8441    1.4112    2.4823 H   0  0  0  0  0  0  0  0  0  0  0  0
   -0.6608    1.9095    3.5861 H   0  0  0  0  0  0  0  0  0  0  0  0
   -1.8283    1.9379   -2.3180 H   0  0  0  0  0  0  0  0  0  0  0  0
   -0.6000   -2.2457   -1.8112 H   0  0  0  0  0  0  0  0  0  0  0  0
    4.0531    2.6340    1.2518 H   0  0  0  0  0  0  0  0  0  0  0  0
    3.5224    1.0140    0.7397 H   0  0  0  0  0  0  0  0  0  0  0  0
    2.6943    3.4722    3.0003 H   0  0  0  0  0  0  0  0  0  0  0  0
    1.1607   -1.1966    1.4600 H   0  0  0  0  0  0  0  0  0  0  0  0
   -1.1376   -2.2479    1.1956 H   0  0  0  0  0  0  0  0  0  0  0  0
   -2.2723   -0.6747   -1.7303 H   0  0  0  0  0  0  0  0  0  0  0  0
    4.8566    1.9601   -0.8222 H   0  0  0  0  0  0  0  0  0  0  0  0
    1.0841   -3.6247   -0.3887 H   0  0  0  0  0  0  0  0  0  0  0  0
    3.1034   -2.7848    1.6738 H   0  0  0  0  0  0  0  0  0  0  0  0
    3.4098   -2.5777   -0.0673 H   0  0  0  0  0  0  0  0  0  0  0  0
   -2.4146   -3.6394   -0.1105 H   0  0  0  0  0  0  0  0  0  0  0  0
    0.3698   -4.6542    1.5307 H   0  0  0  0  0  0  0  0  0  0  0  0
    4.6692   -1.1487    1.1520 H   0  0  0  0  0  0  0  0  0  0  0  0
  1  2  1  0  0  0  0
  1  3  1  0  0  0  0
  1  4  1  0  0  0  0
  1  5  1  0  0  0  0
  2  6  1  0  0  0  0
  3  7  1  0  0  0  0
  4  8  1  0  0  0  0
  4  9  1  0  0  0  0
  4 24  1  0  0  0  0
  5 10  1  0  0  0  0
  5 25  1  0  0  0  0
  5 26  1  0  0  0  0
  6 11  1  0  0  0  0
  6 12  1  0  0  0  0
  6 27  1  0  0  0  0
  7 13  1  0  0  0  0
  7  8  1  0  0  0  0
  7 28  1  0  0  0  0
  8 14  1  0  0  0  0
  8 29  1  0  0  0  0
  9 30  1  0  0  0  0
 10 31  1  0  0  0  0
 11 15  1  0  0  0  0
 12 16  1  0  0  0  0
 12 17  1  0  0  0  0
 12 32  1  0  0  0  0
 13 18  1  0  0  0  0
 13 33  1  0  0  0  0
 13 34  1  0  0  0  0
 14 35  1  0  0  0  0
 15 19  1  0  0  0  0
 15 20  1  0  0  0  0
 15 36  1  0  0  0  0
 16 21  1  0  0  0  0
 16 19  1  0  0  0  0
 16 37  1  0  0  0  0
 17 38  1  0  0  0  0
 18 39  1  0  0  0  0
 19 22  1  0  0  0  0
 19 40  1  0  0  0  0
 20 23  1  0  0  0  0
 20 41  1  0  0  0  0
 20 42  1  0  0  0  0
 21 43  1  0  0  0  0
 22 44  1  0  0  0  0
 23 45  1  0  0  0  0
M  END
>  <Substance ID> (30)
30

>  <Mouse_Female_Canc> (30)
1

>  <SAL> (30)
1

>  <Rat_Male_Canc> (30)
ND

>  <TD50_Rat> (30)
ND

>  <TD50_Mouse> (30)
NP

>  <Rat_Female_Canc> (30)
ND

>  <Canc> (30)
1

>  <MolWeight> (30)
342.30

>  <Mouse_Male_Canc> (30)
1

>  <Mouse_Male_NTP> (30)
ND

>  <ChemName> (30)
Sugar

>  <Rat_Male_NTP> (30)
ND

>  <Reference> (30)
CPDB

>  <Formula> (30)
C12H22O11 

>  <SMILES> (30)
O[C@@H]1[C@@](O[C@@H]2O[C@H]([C@@H](O)[C@H]([C@@H]2O)O)CO)(O[C@@H]([C@H]1O)CO)CO

>  <Rat_Female_NTP> (30)
ND

>  <CAS> (30)
57-50-1

>  <Mouse_Female_NTP> (30)
ND

>  <Synonyms> (30)
1-alpha-D-glucopyranosyl-2-beta-D-fructofranoside; alpha-D-glucopyranosyl beta-D-fructofuranoside; (alpha-D-glucosido)-beta-D-fructofuranoside; beta-D-fructofuranose-(2-1)-alpha-D-glucopyranoside; beta-D-fructofuranosyl-alpha-D-Glucopyranoside; Beet sugar; Cane sugar; confectioner's sugar; D(+)-Sucrose; Saccharose; saccharum; Sucrose.

$$$$
31


 20 20  0  0  0  0  0  0  0  0999 V2000
    9.9532  -66.2957   -0.0744 C   0  0  0  0  0  0  0  0  0  0  0  0
   11.2435  -66.2614    0.1513 C   0  0  0  0  0  0  0  0  0  0  0  0
   11.6852  -64.9102    0.0928 C   0  0  0  0  0  0  0  0  0  0  0  0
   10.6100  -64.0106   -0.1094 O   0  0  0  0  0  0  0  0  0  0  0  0
    9.4506  -64.9083   -0.3971 C   0  0  1  0  0  0  0  0  0  0  0  0
   12.0384  -67.3632    0.4371 O   0  0  0  0  0  0  0  0  0  0  0  0
    9.1865  -67.4618   -0.0623 O   0  0  0  0  0  0  0  0  0  0  0  0
    8.1401  -64.5126    0.3172 C   0  0  1  0  0  0  0  0  0  0  0  0
   12.8533  -64.5585    0.2931 O   0  0  0  0  0  0  0  0  0  0  0  0
    7.7719  -63.1925   -0.0799 O   0  0  0  0  0  0  0  0  0  0  0  0
    7.0058  -65.4897   -0.0759 C   0  0  0  0  0  0  0  0  0  0  0  0
    5.7949  -65.1247    0.5802 O   0  0  0  0  0  0  0  0  0  0  0  0
    9.1647  -64.8408   -1.3530 H   0  0  0  0  0  0  0  0  0  0  0  0
   12.9847  -67.0674    0.5672 H   0  0  0  0  0  0  0  0  0  0  0  0
    8.2328  -67.2363   -0.2611 H   0  0  0  0  0  0  0  0  0  0  0  0
    8.2814  -64.5500    1.3065 H   0  0  0  0  0  0  0  0  0  0  0  0
    6.9234  -62.9301    0.3795 H   0  0  0  0  0  0  0  0  0  0  0  0
    6.8686  -65.4556   -1.0658 H   0  0  0  0  0  0  0  0  0  0  0  0
    7.2611  -66.4181    0.1940 H   0  0  0  0  0  0  0  0  0  0  0  0
    5.0691  -65.7614    0.3199 H   0  0  0  0  0  0  0  0  0  0  0  0
  1  2  2  0  0  0  0
  2  3  1  0  0  0  0
  3  4  1  0  0  0  0
  4  5  1  0  0  0  0
  5  1  1  0  0  0  0
  2  6  1  0  0  0  0
  1  7  1  0  0  0  0
  5  8  1  1  0  0  0
  3  9  2  0  0  0  0
  8 10  1  6  0  0  0
  8 11  1  0  0  0  0
 11 12  1  0  0  0  0
  5 13  1  0  0  0  0
  6 14  1  0  0  0  0
  7 15  1  0  0  0  0
  8 16  1  0  0  0  0
 10 17  1  0  0  0  0
 11 18  1  0  0  0  0
 11 19  1  0  0  0  0
 12 20  1  0  0  0  0
M  END
>  <Substance ID> (31)
31

>  <Mouse_Female_Canc> (31)
1

>  <SAL> (31)
1

>  <Rat_Male_Canc> (31)
1

>  <TD50_Rat> (31)
NP

>  <TD50_Mouse> (31)
NP

>  <Rat_Female_Canc> (31)
1

>  <Canc> (31)
1

>  <MolWeight> (31)
176.13

>  <Mouse_Male_Canc> (31)
1

>  <Mouse_Male_NTP> (31)
ND

>  <ChemName> (31)
L-Ascorbic Acid

>  <Rat_Male_NTP> (31)
ND

>  <Reference> (31)
NTP247

>  <Formula> (31)
C6H8O6 

>  <SMILES> (31)
O=C1O[C@@H](C(/O)=C1/O)[C@@H](O)CO

>  <Rat_Female_NTP> (31)
ND

>  <CAS> (31)
50-81-7

>  <Mouse_Female_NTP> (31)
ND

>  <Synonyms> (31)
Ascorbic Acid; Acid Ascorbic; L-(+)-Ascorbic Acid; Sunkist; Cebid; Cecon; Cevalin; Cemill; Ascorbicap; Vitamin C; L-3-ketothreohexuronic acid; Xitix; vitamisin; vitascorbol; vicelat; Vicin; vicomin c; viforcit; viscorin; vitace; vitacee; vitacimin; Hicee; hybrin; IDO-C; lemascorb; liqui-cee; Meri-c; natrascorb injectable; 3-oxo-L-gulofuranolactone (enol form); planavit c; redoxon; ribena; roscorbic; scorbacid; scorbu-c; secorbate; testascorbic; cemagyl; ce-mi-lin; cenetone; cereon; cergona; cescorbat; cetamid; cetemican; cevatine; Cevex; cevibid; cevimin; ce-vi-sol; cevital; cevitamin; cevitan; cevitex; Cewin; ciamin; Cipca; citriscorb; c-level; C-Long; colascor; concemin; C-Quin; C-Span; c-vimin; dora-c-500; davitamon c; duoscorb; L-threo-hex-2-enonic acid, gamma-lactone; antiscorbic vitamin; antiscorbutic vitamin; cevitamic acid; 3-keto-L-gulofuranolactone; L-3-ketothreohexuronic acid lactone; laroscorbine; L-lyxoascorbic acid; 3-oxo-L-gulofuranolactone; L-xyloascorbic acid; adenex; allercorb; cantan; proscorbin; vitacin; AA; arco-cee; ascoltin; ascorb; ascorbajen; ascorbicab; ascor-b.i.d.; ascorbutina; ascorin; ascorteal; ascorvit; cantaxin; catavin c; cebicure; cebion; cee-caps td; cee-vite; cegiolan; ceglion; celaskon; ce lent; Celin.

$$$$
32


 17 17  0  0  0  0  0  0  0  0999 V2000
    1.3200  -71.5079   -0.0007 C   0  0  0  0  0  0  0  0  0  0  0  0
    1.3179  -72.8398   -0.0005 C   0  0  0  0  0  0  0  0  0  0  0  0
    3.7401  -72.9100    0.0002 C   0  0  0  0  0  0  0  0  0  0  0  0
    3.7424  -71.4451    0.0001 C   0  0  0  0  0  0  0  0  0  0  0  0
    2.5855  -73.5742   -0.0000 C   0  0  0  0  0  0  0  0  0  0  0  0
    2.5899  -70.7774   -0.0004 C   0  0  0  0  0  0  0  0  0  0  0  0
    2.5917  -69.3817   -0.0005 N   0  0  0  0  0  0  0  0  0  0  0  0
    5.0434  -70.6969    0.0002 C   0  0  0  0  0  0  0  0  0  0  0  0
    0.4548  -71.0065   -0.0011 H   0  0  0  0  0  0  0  0  0  0  0  0
    0.4511  -73.3385   -0.0007 H   0  0  0  0  0  0  0  0  0  0  0  0
    4.6054  -73.4114    0.0005 H   0  0  0  0  0  0  0  0  0  0  0  0
    2.5840  -74.5742    0.0002 H   0  0  0  0  0  0  0  0  0  0  0  0
    3.4583  -68.8828   -0.0003 H   0  0  0  0  0  0  0  0  0  0  0  0
    1.7263  -68.8806   -0.0008 H   0  0  0  0  0  0  0  0  0  0  0  0
    4.8628  -69.7133    0.0001 H   0  0  0  0  0  0  0  0  0  0  0  0
    5.5678  -70.9390   -0.8161 H   0  0  0  0  0  0  0  0  0  0  0  0
    5.5676  -70.9389    0.8167 H   0  0  0  0  0  0  0  0  0  0  0  0
  1  2  2  0  0  0  0
  3  4  1  0  0  0  0
  1  6  1  0  0  0  0
  2  5  1  0  0  0  0
  5  3  2  0  0  0  0
  4  6  2  0  0  0  0
  6  7  1  0  0  0  0
  4  8  1  0  0  0  0
  1  9  1  0  0  0  0
  2 10  1  0  0  0  0
  3 11  1  0  0  0  0
  5 12  1  0  0  0  0
  7 13  1  0  0  0  0
  7 14  1  0  0  0  0
  8 15  1  0  0  0  0
  8 16  1  0  0  0  0
  8 17  1  0  0  0  0
M  END
>  <Substance ID> (32)
32

>  <Mouse_Female_Canc> (32)
3

>  <SAL> (32)
1

>  <Rat_Male_Canc> (32)
3

>  <TD50_Rat> (32)
43.6

>  <TD50_Mouse> (32)
840

>  <Rat_Female_Canc> (32)
3

>  <Canc> (32)
3

>  <MolWeight> (32)
107.16

>  <Mouse_Male_Canc> (32)
3

>  <Mouse_Male_NTP> (32)
ND

>  <ChemName> (32)
ortho-Toluidin Hydrochloride

>  <Rat_Male_NTP> (32)
ND

>  <Reference> (32)
NTP153

>  <Formula> (32)
C7H9N 

>  <SMILES> (32)
Cc1ccccc1N

>  <Rat_Female_NTP> (32)
ND

>  <CAS> (32)
636-21-5

>  <Mouse_Female_NTP> (32)
ND

>  <Synonyms> (32)
1-amino-2-methylbenzene hydrochloride; 1-methyl-2-aminobenzene hydrochloride; 2-amino-1-methylbenzene hydrochloride; o-Aminotoluene Hydrochloride; 2-methyl-1-aminobenzene hydrochloride; ortho-Toluidine hydrochloride; 2-Methylaniline hydrochloride; 2-methylbenzenamine hydrochloride; 2-tolueneamine hydrochloride; o-tolylamine hydrochloride.

$$$$
33


 41 42  0  0  0  0  0  0  0  0999 V2000
    7.6800  -80.3934    0.0795 C   0  0  0  0  0  0  0  0  0  0  0  0
    4.7796  -82.9047   -0.0323 C   0  0  0  0  0  0  0  0  0  0  0  0
    6.0550  -82.4879   -0.0016 C   0  0  0  0  0  0  0  0  0  0  0  0
    5.3216  -80.1755    0.0683 C   0  0  0  0  0  0  0  0  0  0  0  0
    3.9535  -80.6183    0.0338 C   0  0  0  0  0  0  0  0  0  0  0  0
    6.3373  -81.0339    0.0506 C   0  0  0  0  0  0  0  0  0  0  0  0
    3.6711  -81.9121   -0.0158 C   0  0  0  0  0  0  0  0  0  0  0  0
    2.3181  -82.3020   -0.0537 N   0  0  0  0  0  0  0  0  0  0  0  0
    9.0301  -81.0160    0.0473 C   0  0  0  0  0  0  0  0  0  0  0  0
    9.2994  -82.3251    0.0033 C   0  0  0  0  0  0  0  0  0  0  0  0
   11.7148  -81.8617   -0.0213 C   0  0  0  0  0  0  0  0  0  0  0  0
   11.3914  -80.4552    0.0268 C   0  0  0  0  0  0  0  0  0  0  0  0
   10.7288  -82.7701   -0.0313 C   0  0  0  0  0  0  0  0  0  0  0  0
   10.1294  -80.0602    0.0611 C   0  0  0  0  0  0  0  0  0  0  0  0
   13.0760  -82.2291   -0.0540 N   0  0  0  0  0  0  0  0  0  0  0  0
    7.6723  -79.1261    0.1305 N   0  0  0  0  0  0  0  0  0  0  0  0
    1.2841  -81.2940   -0.0506 C   0  0  0  0  0  0  0  0  0  0  0  0
    1.9556  -83.6861   -0.0980 C   0  0  0  0  0  0  0  0  0  0  0  0
   13.4673  -83.6060   -0.0879 C   0  0  0  0  0  0  0  0  0  0  0  0
   14.0898  -81.2006   -0.0525 C   0  0  0  0  0  0  0  0  0  0  0  0
    4.5741  -83.8828   -0.0662 H   0  0  0  0  0  0  0  0  0  0  0  0
    6.8048  -83.1495   -0.0137 H   0  0  0  0  0  0  0  0  0  0  0  0
    5.5144  -79.1950    0.1067 H   0  0  0  0  0  0  0  0  0  0  0  0
    3.2124  -79.9471    0.0473 H   0  0  0  0  0  0  0  0  0  0  0  0
    8.5581  -82.9962   -0.0063 H   0  0  0  0  0  0  0  0  0  0  0  0
   12.1254  -79.7761    0.0341 H   0  0  0  0  0  0  0  0  0  0  0  0
   10.9479  -83.7453   -0.0618 H   0  0  0  0  0  0  0  0  0  0  0  0
    9.9251  -79.0820    0.0973 H   0  0  0  0  0  0  0  0  0  0  0  0
    8.5353  -78.6213    0.1529 H   0  0  0  0  0  0  0  0  0  0  0  0
    0.3874  -81.7355   -0.0802 H   0  0  0  0  0  0  0  0  0  0  0  0
    1.3910  -80.7037   -0.8507 H   0  0  0  0  0  0  0  0  0  0  0  0
    1.3569  -80.7437    0.7812 H   0  0  0  0  0  0  0  0  0  0  0  0
    0.9594  -83.7697   -0.1204 H   0  0  0  0  0  0  0  0  0  0  0  0
    2.3104  -84.1502    0.7137 H   0  0  0  0  0  0  0  0  0  0  0  0
    2.3435  -84.1066   -0.9182 H   0  0  0  0  0  0  0  0  0  0  0  0
   14.4651  -83.6691   -0.1079 H   0  0  0  0  0  0  0  0  0  0  0  0
   13.0898  -84.0403   -0.9058 H   0  0  0  0  0  0  0  0  0  0  0  0
   13.1207  -84.0716    0.7265 H   0  0  0  0  0  0  0  0  0  0  0  0
   14.9952  -81.6243   -0.0779 H   0  0  0  0  0  0  0  0  0  0  0  0
   14.0039  -80.6484    0.7768 H   0  0  0  0  0  0  0  0  0  0  0  0
   13.9734  -80.6159   -0.8554 H   0  0  0  0  0  0  0  0  0  0  0  0
  2  3  2  0  0  0  0
  4  5  1  0  0  0  0
  2  7  1  0  0  0  0
  3  6  1  0  0  0  0
  6  4  2  0  0  0  0
  5  7  2  0  0  0  0
  7  8  1  0  0  0  0
  6  1  1  0  0  0  0
  1  9  1  0  0  0  0
  9 10  2  0  0  0  0
 11 12  1  0  0  0  0
  9 14  1  0  0  0  0
 10 13  1  0  0  0  0
 13 11  2  0  0  0  0
 12 14  2  0  0  0  0
 11 15  1  0  0  0  0
  1 16  2  0  0  0  0
  8 17  1  0  0  0  0
  8 18  1  0  0  0  0
 15 19  1  0  0  0  0
 15 20  1  0  0  0  0
  2 21  1  0  0  0  0
  3 22  1  0  0  0  0
  4 23  1  0  0  0  0
  5 24  1  0  0  0  0
 10 25  1  0  0  0  0
 12 26  1  0  0  0  0
 13 27  1  0  0  0  0
 14 28  1  0  0  0  0
 16 29  1  0  0  0  0
 17 30  1  0  0  0  0
 17 31  1  0  0  0  0
 17 32  1  0  0  0  0
 18 33  1  0  0  0  0
 18 34  1  0  0  0  0
 18 35  1  0  0  0  0
 19 36  1  0  0  0  0
 19 37  1  0  0  0  0
 19 38  1  0  0  0  0
 20 39  1  0  0  0  0
 20 40  1  0  0  0  0
 20 41  1  0  0  0  0
M  END
>  <Substance ID> (33)
33

>  <Mouse_Female_Canc> (33)
3

>  <SAL> (33)
3

>  <Rat_Male_Canc> (33)
3

>  <TD50_Rat> (33)
11

>  <TD50_Mouse> (33)
62.7

>  <Rat_Female_Canc> (33)
ND

>  <Canc> (33)
3

>  <MolWeight> (33)
267.38

>  <Mouse_Male_Canc> (33)
3

>  <Mouse_Male_NTP> (33)
ND

>  <ChemName> (33)
Auramine

>  <Rat_Male_NTP> (33)
ND

>  <Reference> (33)
CPDB

>  <Formula> (33)
C17H21N3 

>  <SMILES> (33)
N=C(c1ccc(N(C)C)cc1)c2ccc(N(C)C)cc2

>  <Rat_Female_NTP> (33)
ND

>  <CAS> (33)
492-80-8

>  <Mouse_Female_NTP> (33)
ND

>  <Synonyms> (33)
4,4'-(Imidocarbonyl)bis(N,N-Dimethylaniline); Blauramine; Brilliant Oil yellow; Carbonoimidoylbis(N,N-dimethylbenzenamine); C.I. 41000B; C.I. Basic Yellow 2, Free Base; C.I. Solvent Yellow 34; Waxoline yellow D; Yellow pyoctanine.

$$$$
34


 11 10  0  0  0  0  0  0  0  0999 V2000
    1.5353  -90.2536   -0.0001 C   0  0  0  0  0  0  0  0  0  0
    2.6662  -89.5512    0.0001 C   0  0  0  0  0  0  0  0  0  0
    3.9927  -90.2576   -0.0001 C   0  0  0  0  0  0  0  0  0  0
    5.0468  -89.2833    0.0008 N   0  0  0  0  0  0  0  0  0  0
    6.2295  -89.6424    0.0001 C   0  0  0  0  0  0  0  0  0  0
    7.6818  -90.1236   -0.0008 S   0  0  0  0  0  0  0  0  0  0
    0.6537  -89.7818    0.0000 H   0  0  0  0  0  0  0  0  0  0
    1.5676  -91.2531   -0.0005 H   0  0  0  0  0  0  0  0  0  0
    2.6330  -88.5518    0.0005 H   0  0  0  0  0  0  0  0  0  0
    4.0664  -90.8306    0.8162 H   0  0  0  0  0  0  0  0  0  0
    4.0668  -90.8294   -0.8171 H   0  0  0  0  0  0  0  0  0  0
  1  2  2  0  0  0
  2  3  1  0  0  0
  3  4  1  0  0  0
  4  5  2  0  0  0
  5  6  2  0  0  0
  1  7  1  0  0  0
  1  8  1  0  0  0
  2  9  1  0  0  0
  3 10  1  0  0  0
  3 11  1  0  0  0
M  END
>  <Substance ID> (34)
34

>  <Mouse_Female_Canc> (34)
1

>  <SAL> (34)
3

>  <Rat_Male_Canc> (34)
3

>  <TD50_Rat> (34)
96

>  <TD50_Mouse> (34)
NP

>  <Rat_Female_Canc> (34)
2

>  <Canc> (34)
3

>  <MolWeight> (34)
99.15

>  <Mouse_Male_Canc> (34)
1

>  <Mouse_Male_NTP> (34)
ND

>  <ChemName> (34)
Allyl Isothiocyanate

>  <Rat_Male_NTP> (34)
ND

>  <Reference> (34)
NTP234

>  <Formula> (34)
C4H5NS 

>  <SMILES> (34)
C=CCN=C=S

>  <Rat_Female_NTP> (34)
ND

>  <CAS> (34)
57-06-7

>  <Mouse_Female_NTP> (34)
ND

>  <Synonyms> (34)
2-propenyl isothiocyanate; 3-Isothiocyanato-1-Propene; 3-isothiocyanatopropene; AITC; AITK; allyl isorhodanide; Allyl Isosulfocyanate; Allyl isothiocyanate, inhibited; Allyl Mustard Oil; allylsenevol; allyl sevenolum; allyl thiocarbonimide; artificial mustard oil; artificial oil of mustard; carbospol; fema no. 2034; Isothiocyanato-1-propene; Mustard oil; oil of mustard; oil of mustard bpc 1949; oleum sinapis volatile; Propenyl isothiocyanate; redskin; volatile oil of mustard.

$$$$
35


 24 23  0  0  0  0  0  0  0  0999 V2000
    1.8484  -96.1266    0.1248 C   0  0  0  0  0  0  0  0  0  0  0  0
    3.1395  -95.3037    0.2797 C   0  0  0  0  0  0  0  0  0  0  0  0
    4.3513  -96.1870   -0.1214 C   0  0  0  0  0  0  0  0  0  0  0  0
    5.6761  -95.4851    0.0846 C   0  0  0  0  0  0  0  0  0  0  0  0
    6.8590  -96.1488   -0.2227 O   0  0  0  0  0  0  0  0  0  0  0  0
    7.9754  -95.3086    0.0783 C   0  0  0  0  0  0  0  0  0  0  0  0
    9.2505  -96.0505   -0.1939 C   0  0  0  0  0  0  0  0  0  0  0  0
   10.4227  -95.4692    0.0510 C   0  0  0  0  0  0  0  0  0  0  0  0
    5.7237  -94.3362    0.5494 O   0  0  0  0  0  0  0  0  0  0  0  0
    3.0406  -94.0561   -0.6287 C   0  0  0  0  0  0  0  0  0  0  0  0
    1.0618  -95.5650    0.3812 H   0  0  0  0  0  0  0  0  0  0  0  0
    1.8914  -96.9301    0.7186 H   0  0  0  0  0  0  0  0  0  0  0  0
    1.7518  -96.4202   -0.8263 H   0  0  0  0  0  0  0  0  0  0  0  0
    3.2619  -95.0065    1.2266 H   0  0  0  0  0  0  0  0  0  0  0  0
    4.3395  -97.0183    0.4344 H   0  0  0  0  0  0  0  0  0  0  0  0
    4.2645  -96.4302   -1.0875 H   0  0  0  0  0  0  0  0  0  0  0  0
    7.9388  -94.4890   -0.4934 H   0  0  0  0  0  0  0  0  0  0  0  0
    7.9431  -95.0449    1.0424 H   0  0  0  0  0  0  0  0  0  0  0  0
    9.2199  -96.9810   -0.5589 H   0  0  0  0  0  0  0  0  0  0  0  0
   11.2732  -95.9629   -0.1302 H   0  0  0  0  0  0  0  0  0  0  0  0
   10.4528  -94.5387    0.4160 H   0  0  0  0  0  0  0  0  0  0  0  0
    3.8739  -93.5107   -0.5385 H   0  0  0  0  0  0  0  0  0  0  0  0
    2.2515  -93.5060   -0.3554 H   0  0  0  0  0  0  0  0  0  0  0  0
    2.9325  -94.3438   -1.5803 H   0  0  0  0  0  0  0  0  0  0  0  0
  1  2  1  0  0  0  0
  2  3  1  0  0  0  0
  3  4  1  0  0  0  0
  4  5  1  0  0  0  0
  5  6  1  0  0  0  0
  6  7  1  0  0  0  0
  7  8  2  0  0  0  0
  4  9  2  0  0  0  0
  2 10  1  0  0  0  0
  1 11  1  0  0  0  0
  1 12  1  0  0  0  0
  1 13  1  0  0  0  0
  2 14  1  0  0  0  0
  3 15  1  0  0  0  0
  3 16  1  0  0  0  0
  6 17  1  0  0  0  0
  6 18  1  0  0  0  0
  7 19  1  0  0  0  0
  8 20  1  0  0  0  0
  8 21  1  0  0  0  0
 10 22  1  0  0  0  0
 10 23  1  0  0  0  0
 10 24  1  0  0  0  0
M  END
>  <Substance ID> (35)
35

>  <Mouse_Female_Canc> (35)
3

>  <SAL> (35)
1

>  <Rat_Male_Canc> (35)
3

>  <TD50_Rat> (35)
123

>  <TD50_Mouse> (35)
62.8

>  <Rat_Female_Canc> (35)
1

>  <Canc> (35)
3

>  <MolWeight> (35)
142.20

>  <Mouse_Male_Canc> (35)
1

>  <Mouse_Male_NTP> (35)
ND

>  <ChemName> (35)
Allyl Isovalerianate

>  <Rat_Male_NTP> (35)
ND

>  <Reference> (35)
NTP253

>  <Formula> (35)
C8H14O2 

>  <SMILES> (35)
O=C(CC(C)C)OCC=C

>  <Rat_Female_NTP> (35)
ND

>  <CAS> (35)
2835-39-4

>  <Mouse_Female_NTP> (35)
ND

>  <Synonyms> (35)
2-propenyl 3-methylbutanoate; 2-propenyl isovalerate; allyl 3-methylbutyrate; allyl isovalerianate; fema no. 2045; isovaleric acid, allyl ester.

$$$$
36


 37 36  0  0  0  0  0  0  0  0999 V2000
   34.1425   -4.5007   -0.0021 C   0  0  0  0  0  0  0  0  0  0  0  0
   41.6545   -3.6790    0.0698 C   0  0  0  0  0  0  0  0  0  0  0  0
   40.3095   -3.0255   -0.0340 C   0  0  0  0  0  0  0  0  0  0  0  0
   39.1951   -4.0902   -0.0054 C   0  0  0  0  0  0  0  0  0  0  0  0
   37.8409   -3.3696   -0.1058 C   0  0  0  0  0  0  0  0  0  0  0  0
   36.6758   -4.3726   -0.0305 C   0  0  0  0  0  0  0  0  0  0  0  0
   35.3637   -3.5735   -0.1180 C   0  0  0  0  0  0  0  0  0  0  0  0
   32.8753   -3.6301   -0.0876 C   0  0  0  0  0  0  0  0  0  0  0  0
   31.6137   -4.4974    0.0481 C   0  0  0  0  0  0  0  0  0  0  0  0
   30.3763   -3.5851   -0.0481 C   0  0  0  0  0  0  0  0  0  0  0  0
   29.0950   -4.4244    0.0909 C   0  0  0  0  0  0  0  0  0  0  0  0
   42.6763   -2.9803    0.1080 O   0  0  0  0  0  0  0  0  0  0  0  0
   41.7579   -5.0638    0.1246 O   0  0  0  0  0  0  0  0  0  0  0  0
   27.9225   -3.5429   -0.0105 N   0  0  0  0  0  0  0  0  0  0  0  0
   34.1487   -5.1652   -0.7493 H   0  0  0  0  0  0  0  0  0  0  0  0
   34.1645   -4.9829    0.8737 H   0  0  0  0  0  0  0  0  0  0  0  0
   40.1869   -2.3988    0.7356 H   0  0  0  0  0  0  0  0  0  0  0  0
   40.2561   -2.5148   -0.8921 H   0  0  0  0  0  0  0  0  0  0  0  0
   39.3041   -4.7151   -0.7784 H   0  0  0  0  0  0  0  0  0  0  0  0
   39.2415   -4.6060    0.8500 H   0  0  0  0  0  0  0  0  0  0  0  0
   37.7606   -2.7180    0.6485 H   0  0  0  0  0  0  0  0  0  0  0  0
   37.7949   -2.8798   -0.9764 H   0  0  0  0  0  0  0  0  0  0  0  0
   36.7326   -5.0181   -0.7921 H   0  0  0  0  0  0  0  0  0  0  0  0
   36.7126   -4.8728    0.8346 H   0  0  0  0  0  0  0  0  0  0  0  0
   35.3381   -2.9053    0.6255 H   0  0  0  0  0  0  0  0  0  0  0  0
   35.3295   -3.0970   -0.9965 H   0  0  0  0  0  0  0  0  0  0  0  0
   32.8904   -2.9544    0.6494 H   0  0  0  0  0  0  0  0  0  0  0  0
   32.8580   -3.1607   -0.9704 H   0  0  0  0  0  0  0  0  0  0  0  0
   31.5904   -5.1749   -0.6870 H   0  0  0  0  0  0  0  0  0  0  0  0
   31.6198   -4.9643    0.9324 H   0  0  0  0  0  0  0  0  0  0  0  0
   30.4081   -2.9050    0.6844 H   0  0  0  0  0  0  0  0  0  0  0  0
   30.3743   -3.1215   -0.9341 H   0  0  0  0  0  0  0  0  0  0  0  0
   29.0629   -5.1079   -0.6384 H   0  0  0  0  0  0  0  0  0  0  0  0
   29.0915   -4.8838    0.9792 H   0  0  0  0  0  0  0  0  0  0  0  0
   42.7210   -5.3242    0.1916 H   0  0  0  0  0  0  0  0  0  0  0  0
   27.0877   -4.0860    0.0796 H   0  0  0  0  0  0  0  0  0  0  0  0
   27.9263   -3.0832   -0.8986 H   0  0  0  0  0  0  0  0  0  0  0  0
  2  3  1  0  0  0  0
  3  4  1  0  0  0  0
  4  5  1  0  0  0  0
  5  6  1  0  0  0  0
  7  6  1  0  0  0  0
  7  1  1  0  0  0  0
  1  8  1  0  0  0  0
  8  9  1  0  0  0  0
  9 10  1  0  0  0  0
 10 11  1  0  0  0  0
  2 12  2  0  0  0  0
  2 13  1  0  0  0  0
 11 14  1  0  0  0  0
  1 15  1  0  0  0  0
  1 16  1  0  0  0  0
  3 17  1  0  0  0  0
  3 18  1  0  0  0  0
  4 19  1  0  0  0  0
  4 20  1  0  0  0  0
  5 21  1  0  0  0  0
  5 22  1  0  0  0  0
  6 23  1  0  0  0  0
  6 24  1  0  0  0  0
  7 25  1  0  0  0  0
  7 26  1  0  0  0  0
  8 27  1  0  0  0  0
  8 28  1  0  0  0  0
  9 29  1  0  0  0  0
  9 30  1  0  0  0  0
 10 31  1  0  0  0  0
 10 32  1  0  0  0  0
 11 33  1  0  0  0  0
 11 34  1  0  0  0  0
 13 35  1  0  0  0  0
 14 36  1  0  0  0  0
 14 37  1  0  0  0  0
M  END
>  <Substance ID> (36)
36

>  <Mouse_Female_Canc> (36)
1

>  <SAL> (36)
1

>  <Rat_Male_Canc> (36)
3

>  <TD50_Rat> (36)
1100

>  <TD50_Mouse> (36)
NP

>  <Rat_Female_Canc> (36)
1

>  <Canc> (36)
3

>  <MolWeight> (36)
201.31

>  <Mouse_Male_Canc> (36)
2

>  <Mouse_Male_NTP> (36)
ND

>  <ChemName> (36)
11-Aminoundecanoic Acid

>  <Rat_Male_NTP> (36)
ND

>  <Reference> (36)
NTP216

>  <Formula> (36)
C11H23NO2 

>  <SMILES> (36)
OC(=O)CCCCCCCCCCN

>  <Rat_Female_NTP> (36)
ND

>  <CAS> (36)
2432-99-7

>  <Mouse_Female_NTP> (36)
ND

>  <Synonyms> (36)
11-aminoundecyclic acid; aminoundecanoic acid; omega-aminoundecanoic acid.

$$$$
37


 12 12  0  0  0  0  0  0  0  0999 V2000
   31.6189  -11.4070   -0.0006 C   0  0  0  0  0  0  0  0  0  1  0  0
   31.6522  -10.0751    0.0000 C   0  0  0  0  0  0  0  0  0  2  0  0
   29.2315   -9.9478    0.0005 C   0  0  0  0  0  0  0  0  0  3  0  0
   29.1949  -11.4131   -0.0001 C   0  0  0  0  0  0  0  0  0  4  0  0
   30.4016   -9.3107    0.0006 C   0  0  0  0  0  0  0  0  0  5  0  0
   30.3316  -12.1078   -0.0006 C   0  0  0  0  0  0  0  0  0  6  0  0
   32.4721  -11.9285   -0.0011 H   0  0  0  0  0  0  0  0  0  0  0  0
   32.5305   -9.5969    0.0000 H   0  0  0  0  0  0  0  0  0  0  0  0
   28.3782   -9.4263    0.0008 H   0  0  0  0  0  0  0  0  0  0  0  0
   28.3167  -11.8913   -0.0001 H   0  0  0  0  0  0  0  0  0  0  0  0
   30.4266   -8.3110    0.0011 H   0  0  0  0  0  0  0  0  0  0  0  0
   30.3066  -13.1075   -0.0010 H   0  0  0  0  0  0  0  0  0  0  0  0
  1  2  2  0  0  0  0
  3  4  1  0  0  0  0
  1  6  1  0  0  0  0
  2  5  1  0  0  0  0
  5  3  2  0  0  0  0
  4  6  2  0  0  0  0
  1  7  1  0  0  0  0
  2  8  1  0  0  0  0
  3  9  1  0  0  0  0
  4 10  1  0  0  0  0
  5 11  1  0  0  0  0
  6 12  1  0  0  0  0
M  END
>  <Substance ID> (37)
37

>  <Mouse_Female_Canc> (37)
3

>  <SAL> (37)
1

>  <Rat_Male_Canc> (37)
3

>  <TD50_Rat> (37)
169

>  <TD50_Mouse> (37)
77.5

>  <Rat_Female_Canc> (37)
3

>  <Canc> (37)
3

>  <MolWeight> (37)
78.11

>  <Mouse_Male_Canc> (37)
3

>  <Mouse_Male_NTP> (37)
CE

>  <ChemName> (37)
Benzene

>  <Rat_Male_NTP> (37)
CE

>  <Reference> (37)
NTP289

>  <Formula> (37)
C6H6

>  <SMILES> (37)
C1=CC=CC=C1

>  <Rat_Female_NTP> (37)
CE

>  <CAS> (37)
71-43-2

>  <Mouse_Female_NTP> (37)
CE

>  <Synonyms> (37)
(6)annulene; benzine; Benzol; Benzolene; bicarburet of hydrogen; carbon oil; Coal naphtha; cyclohexatriene; mineral naphtha; motor benzol; nitration benzene; Phene; Phenyl hydride; pyrobenzol.

$$$$
38


 21 21  0  0  0  0  0  0  0  0999 V2000
   33.2015  -21.4930   -0.7663 C   0  0  0  0  0  0  0  0  0  0  0  0
   33.3876  -20.1755   -0.7167 C   0  0  0  0  0  0  0  0  0  0  0  0
   31.2691  -19.8497    0.4150 C   0  0  0  0  0  0  0  0  0  0  0  0
   31.0641  -21.2998    0.3552 C   0  0  0  0  0  0  0  0  0  0  0  0
   32.3749  -19.3065   -0.0907 C   0  0  0  0  0  0  0  0  0  0  0  0
   31.9850  -22.0818   -0.2054 C   0  0  0  0  0  0  0  0  0  0  0  0
   32.5552  -17.7939   -0.0214 C   0  0  0  0  0  0  0  0  0  0  0  0
   33.8119  -17.3340   -0.5732 O   0  0  0  0  0  0  0  0  0  0  0  0
   34.8923  -17.5385    0.3057 C   0  0  0  0  0  0  0  0  0  0  0  0
   36.2733  -17.1203   -0.1069 C   0  0  0  0  0  0  0  0  0  0  0  0
   34.7124  -18.0605    1.4123 O   0  0  0  0  0  0  0  0  0  0  0  0
   33.8931  -22.0802   -1.1869 H   0  0  0  0  0  0  0  0  0  0  0  0
   34.2170  -19.7743   -1.1055 H   0  0  0  0  0  0  0  0  0  0  0  0
   30.5758  -19.2658    0.8373 H   0  0  0  0  0  0  0  0  0  0  0  0
   30.2316  -21.7025    0.7359 H   0  0  0  0  0  0  0  0  0  0  0  0
   31.8450  -23.0713   -0.2430 H   0  0  0  0  0  0  0  0  0  0  0  0
   31.8100  -17.3632   -0.5306 H   0  0  0  0  0  0  0  0  0  0  0  0
   32.5097  -17.5138    0.9375 H   0  0  0  0  0  0  0  0  0  0  0  0
   36.9196  -17.3341    0.6255 H   0  0  0  0  0  0  0  0  0  0  0  0
   36.2850  -16.1363   -0.2845 H   0  0  0  0  0  0  0  0  0  0  0  0
   36.5367  -17.6116   -0.9372 H   0  0  0  0  0  0  0  0  0  0  0  0
  1  2  2  0  0  0  0
  3  4  1  0  0  0  0
  1  6  1  0  0  0  0
  2  5  1  0  0  0  0
  5  3  2  0  0  0  0
  4  6  2  0  0  0  0
  5  7  1  0  0  0  0
  7  8  1  0  0  0  0
  8  9  1  0  0  0  0
  9 10  1  0  0  0  0 
  9 11  2  0  0  0  0
  1 12  1  0  0  0  0
  2 13  1  0  0  0  0
  3 14  1  0  0  0  0
  4 15  1  0  0  0  0
  6 16  1  0  0  0  0
  7 17  1  0  0  0  0
  7 18  1  0  0  0  0
 10 19  1  0  0  0  0
 10 20  1  0  0  0  0
 10 21  1  0  0  0  0
M  END
>  <Substance ID> (38)
38

>  <Mouse_Female_Canc> (38)
1

>  <SAL> (38)
1

>  <Rat_Male_Canc> (38)
1

>  <TD50_Rat> (38)
NP

>  <TD50_Mouse> (38)
NP

>  <Rat_Female_Canc> (38)
1

>  <Canc> (38)
1

>  <MolWeight> (38)
150.18

>  <Mouse_Male_Canc> (38)
1

>  <Mouse_Male_NTP> (38)
NE

>  <ChemName> (38)
Benzyl Acetate

>  <Rat_Male_NTP> (38)
NE

>  <Reference> (38)
NTP431

>  <Formula> (38)
C9H10O2

>  <SMILES> (38)
CC(=O)OCC1=CC=CC=C1

>  <Rat_Female_NTP> (38)
NE

>  <CAS> (38)
140-11-4

>  <Mouse_Female_NTP> (38)
NE

>  <Synonyms> (38)
alpha-acetoxytoluene; Acetic acid benzyl ester; ACETATO DE BENCILO; Acetic acid phenylmethyl ester; (acetoxymethyl)benzene;  phenylmethyl acetate.

$$$$
39


 24 25  0  0  0  0  0  0  0  0999 V2000
   31.9503  -30.4537   -0.0023 C   0  0  0  0  0  0  0  0  0  0  0  0
   30.4913  -30.4956   -0.0033 C   0  0  0  0  0  0  0  0  0  0  0  0
   29.8606  -31.6666   -0.0006 C   0  0  0  0  0  0  0  0  0  0  0  0
   30.6329  -32.9097    0.0037 C   0  0  0  0  0  0  0  0  0  0  0  0
   31.9651  -32.8691    0.0046 C   0  0  0  0  0  0  0  0  0  0  0  0
   32.6673  -31.5783    0.0014 C   0  0  0  0  0  0  0  0  0  0  0  0
   34.1669  -31.5701    0.0011 C   0  0  0  0  0  0  0  0  0  0  0  0
   34.8561  -32.8708    0.0013 C   0  0  0  0  0  0  0  0  0  0  0  0
   36.1858  -32.9366   -0.0003 C   0  0  0  0  0  0  0  0  0  0  0  0
   36.3664  -30.5312   -0.0027 C   0  0  0  0  0  0  0  0  0  0  0  0
   34.9046  -30.4423   -0.0001 C   0  0  0  0  0  0  0  0  0  0  0  0
   36.9755  -31.7129   -0.0027 C   0  0  0  0  0  0  0  0  0  0  0  0
   34.3329  -29.1657    0.0006 N   0  0  0  0  0  0  0  0  0  0  0  0
   32.4185  -29.5701   -0.0045 H   0  0  0  0  0  0  0  0  0  0  0  0
   29.9663  -29.6445   -0.0061 H   0  0  0  0  0  0  0  0  0  0  0  0
   28.8610  -31.6975   -0.0013 H   0  0  0  0  0  0  0  0  0  0  0  0
   30.1603  -33.7909    0.0059 H   0  0  0  0  0  0  0  0  0  0  0  0
   32.4890  -33.7209    0.0074 H   0  0  0  0  0  0  0  0  0  0  0  0
   34.3194  -33.7146    0.0027 H   0  0  0  0  0  0  0  0  0  0  0  0
   36.6423  -33.8263    0.0002 H   0  0  0  0  0  0  0  0  0  0  0  0
   36.9125  -29.6935   -0.0045 H   0  0  0  0  0  0  0  0  0  0  0  0
   37.9743  -31.7615   -0.0043 H   0  0  0  0  0  0  0  0  0  0  0  0
   33.3382  -29.0633    0.0023 H   0  0  0  0  0  0  0  0  0  0  0  0
   34.9189  -28.3554   -0.0007 H   0  0  0  0  0  0  0  0  0  0  0  0
  1  6  2  0  0  0  0
  1  2  1  0  0  0  0
  2  3  2  0  0  0  0
  3  4  1  0  0  0  0
  4  5  2  0  0  0  0
  5  6  1  0  0  0  0
  6  7  1  0  0  0  0
  8  9  2  0  0  0  0
 10 11  1  0  0  0  0
  8  7  1  0  0  0  0
  9 12  1  0  0  0  0
 12 10  2  0  0  0  0
 11  7  2  0  0  0  0
 11 13  1  0  0  0  0
  1 14  1  0  0  0  0
  2 15  1  0  0  0  0
  3 16  1  0  0  0  0
  4 17  1  0  0  0  0
  5 18  1  0  0  0  0
  8 19  1  0  0  0  0
  9 20  1  0  0  0  0
 10 21  1  0  0  0  0
 12 22  1  0  0  0  0
 13 23  1  0  0  0  0
 13 24  1  0  0  0  0
M  END
>  <Substance ID> (39)
39

>  <Mouse_Female_Canc> (39)
3

>  <SAL> (39)
3

>  <Rat_Male_Canc> (39)
1

>  <TD50_Rat> (39)
NP

>  <TD50_Mouse> (39)
1120

>  <Rat_Female_Canc> (39)
1

>  <Canc> (39)
3

>  <MolWeight> (39)
169.23

>  <Mouse_Male_Canc> (39)
2

>  <Mouse_Male_NTP> (39)
ND

>  <ChemName> (39)
2-Biphenylamine Hydrochloride

>  <Rat_Male_NTP> (39)
ND

>  <Reference> (39)
NTP233

>  <Formula> (39)
C12H11N

>  <SMILES> (39)
C1(C2=C(C=CC=C2)N)(=CC=CC=C1)

>  <Rat_Female_NTP> (39)
ND

>  <CAS> (39)
2185-92-4

>  <Mouse_Female_NTP> (39)
ND

>  <Synonyms> (39)
2-aminobiphenyl hydrochloride; ntp-11205-a.

$$$$
40


 21 20  0  0  0  0  0  0  0  0999 V2000
   34.4317  -38.9698    0.4553 Cl  0  0  0  0  0  0  0  0  0  0  0  0
   32.9061  -38.3719   -0.2033 C   0  0  0  0  0  0  0  0  0  0  0  0
   31.7630  -39.3144    0.2165 C   0  0  1  0  0  0  0  0  0  0  0  0
   30.4972  -38.7552   -0.3097 O   0  0  0  0  0  0  0  0  0  0  0  0
   29.2305  -39.3121    0.2167 C   0  0  1  0  0  0  0  0  0  0  0  0
   28.0891  -38.3676   -0.2029 C   0  0  0  0  0  0  0  0  0  0  0  0
   26.5625  -38.9628    0.4560 Cl  0  0  0  0  0  0  0  0  0  0  0  0
   28.8594  -40.7248   -0.3153 C   0  0  0  0  0  0  0  0  0  0  0  0
   32.1315  -40.7277   -0.3156 C   0  0  0  0  0  0  0  0  0  0  0  0
   32.7276  -37.4535    0.1497 H   0  0  0  0  0  0  0  0  0  0  0  0
   32.9631  -38.3407   -1.2012 H   0  0  0  0  0  0  0  0  0  0  0  0
   31.6363  -39.3964    1.2050 H   0  0  0  0  0  0  0  0  0  0  0  0
   29.3573  -39.3944    1.2052 H   0  0  0  0  0  0  0  0  0  0  0  0
   28.2692  -37.4495    0.1501 H   0  0  0  0  0  0  0  0  0  0  0  0
   28.0319  -38.3363   -1.2008 H   0  0  0  0  0  0  0  0  0  0  0  0
   27.9945  -41.0182    0.0918 H   0  0  0  0  0  0  0  0  0  0  0  0
   29.5797  -41.3737   -0.0701 H   0  0  0  0  0  0  0  0  0  0  0  0
   28.7649  -40.6926   -1.3104 H   0  0  0  0  0  0  0  0  0  0  0  0
   31.4132  -41.3766   -0.0648 H   0  0  0  0  0  0  0  0  0  0  0  0
   32.9992  -41.0200    0.0866 H   0  0  0  0  0  0  0  0  0  0  0  0
   32.2196  -40.6971   -1.3113 H   0  0  0  0  0  0  0  0  0  0  0  0
  1  2  1  0  0  0  0
  2  3  1  0  0  0  0
  3  4  1  0  0  0  0
  4  5  1  0  0  0  0
  6  5  1  0  0  0  0
  6  7  1  0  0  0  0
  5  8  1  0  0  0  0
  3  9  1  0  0  0  0
  2 10  1  0  0  0  0
  2 11  1  0  0  0  0
  3 12  1  0  0  0  0
  5 13  1  0  0  0  0
  6 14  1  0  0  0  0
  6 15  1  0  0  0  0
  8 16  1  0  0  0  0
  8 17  1  0  0  0  0
  8 18  1  0  0  0  0
  9 19  1  0  0  0  0
  9 20  1  0  0  0  0
  9 21  1  0  0  0  0
M  END
>  <Substance ID> (40)
40

>  <Mouse_Female_Canc> (40)
3

>  <SAL> (40)
3

>  <Rat_Male_Canc> (40)
1

>  <TD50_Rat> (40)
NP

>  <TD50_Mouse> (40)
191

>  <Rat_Female_Canc> (40)
1

>  <Canc> (40)
3

>  <MolWeight> (40)
171.07

>  <Mouse_Male_Canc> (40)
3

>  <Mouse_Male_NTP> (40)
ND

>  <ChemName> (40)
Bis(2-Chloro-1-Methylethyl) Ether

>  <Rat_Male_NTP> (40)
ND

>  <Reference> (40)
CPDB & NTP239

>  <Formula> (40)
C6H12Cl2O

>  <SMILES> (40)
ClCC(OC(C)CCl)C

>  <Rat_Female_NTP> (40)
ND

>  <CAS> (40)
108-60-1

>  <Mouse_Female_NTP> (40)
ND

>  <Synonyms> (40)
2,2'-oxybis[1-chloropropane]; (2-chloro-1-methylethyl) ether; beta,beta'-dichlorodiisopropyl ether; bis(1-chloro-2-propyl) ether; Bis(1-methyl-2-chloroethyl)ether; bis(beta-chloroisopropyl)ether; dichlorodiisopropyl ether; bis-chloroisopropyl ether; DCIP; nemamort; Pichloram.

$$$$
41


 10  9  0        0              1 V2000
    0.3600    0.8960    0.0000 C   0  0  0  0  0  0  0  0  0  0  0  0
   -0.8880    1.3840    0.0000 C   0  0  0  0  0  0  0  0  0  0  0  0
    0.7160   -0.4000    0.0000 C   0  0  0  0  0  0  0  0  0  0  0  0
   -0.1080   -1.4600    0.0000 C   0  0  0  0  0  0  0  0  0  0  0  0
    1.1800    1.6400    0.0000 H   0  0  0  0  0  0  0  0  0  0  0  0
   -1.7920    0.7560    0.0000 H   0  0  0  0  0  0  0  0  0  0  0  0
   -1.0560    2.4760    0.0000 H   0  0  0  0  0  0  0  0  0  0  0  0
    1.7960   -0.6200    0.0000 H   0  0  0  0  0  0  0  0  0  0  0  0
    0.3040   -2.4800    0.0000 H   0  0  0  0  0  0  0  0  0  0  0  0
   -1.2040   -1.3760    0.0000 H   0  0  0  0  0  0  0  0  0  0  0  0
  4 10  1  0  0  0  0
  4  9  1  0  0  0  0
  3  8  1  0  0  0  0
  3  4  2  0  0  0  0
  2  7  1  0  0  0  0
  2  6  1  0  0  0  0
  1  5  1  0  0  0  0
  1  3  1  0  0  0  0
  1  2  2  0  0  0  0
M  END
>  <Substance ID> (41)
41

>  <Mouse_Female_Canc> (41)
3

>  <SAL> (41)
3

>  <Rat_Male_Canc> (41)
3

>  <TD50_Rat> (41)
261

>  <TD50_Mouse> (41)
13.9

>  <Rat_Female_Canc> (41)
3

>  <Canc> (41)
3

>  <MolWeight> (41)
54.09

>  <Mouse_Male_Canc> (41)
3

>  <Mouse_Male_NTP> (41)
CE

>  <ChemName> (41)
1,3-Butadiene 

>  <Rat_Male_NTP> (41)
ND

>  <Reference> (41)
CPDB & NTP434

>  <Formula> (41)
C4H6

>  <SMILES> (41)
C=CC=C

>  <Rat_Female_NTP> (41)
ND

>  <CAS> (41)
106-99-0

>  <Mouse_Female_NTP> (41)
CE

>  <Synonyms> (41)
1,3-butadiene, various grades; alpha-gamma-butadiene; Biethylene; bivinyl; Buta-1,3-diene; Butadiene; Butadiene, 1,3-; erythrene; Pyrrolylene; vinyl ethylene.

$$$$
42


 12 12  0  0  0  0  0  0  0  0999 V2000
   30.2993  -55.0128   -0.0006 C   0  0  0  0  0  0  0  0  0  0  0  0
   30.2962  -56.4773   -0.0005 C   0  0  0  0  0  0  0  0  0  0  0  0
   31.4483  -57.1458   -0.0001 C   0  0  0  0  0  0  0  0  0  0  0  0
   32.7186  -56.4163    0.0004 C   0  0  0  0  0  0  0  0  0  0  0  0
   32.7215  -55.0844    0.0004 C   0  0  0  0  0  0  0  0  0  0  0  0
   31.4544  -54.3494   -0.0001 C   0  0  0  0  0  0  0  0  0  0  0  0
   31.4579  -52.6219   -0.0004 Cl  0  0  0  0  0  0  0  0  0  0  0  0
   29.4344  -54.5109   -0.0010 H   0  0  0  0  0  0  0  0  0  0  0  0
   29.4291  -56.9755   -0.0006 H   0  0  0  0  0  0  0  0  0  0  0  0
   31.4461  -58.1458   -0.0003 H   0  0  0  0  0  0  0  0  0  0  0  0
   33.5835  -56.9183    0.0007 H   0  0  0  0  0  0  0  0  0  0  0  0
   33.5885  -54.5862    0.0008 H   0  0  0  0  0  0  0  0  0  0  0  0
  1  6  2  0  0  0  0
  1  2  1  0  0  0  0
  2  3  2  0  0  0  0
  3  4  1  0  0  0  0
  4  5  2  0  0  0  0
  5  6  1  0  0  0  0
  6  7  1  0  0  0  0
  1  8  1  0  0  0  0
  2  9  1  0  0  0  0
  3 10  1  0  0  0  0
  4 11  1  0  0  0  0
  5 12  1  0  0  0  0
M  END
>  <Substance ID> (42)
42

>  <Mouse_Female_Canc> (42)
1

>  <SAL> (42)
1

>  <Rat_Male_Canc> (42)
2

>  <TD50_Rat> (42)
NP

>  <TD50_Mouse> (42)
NP

>  <Rat_Female_Canc> (42)
1

>  <Canc> (42)
2

>  <MolWeight> (42)
112.56

>  <Mouse_Male_Canc> (42)
1

>  <Mouse_Male_NTP> (42)
ND

>  <ChemName> (42)
Chlorobenzene

>  <Rat_Male_NTP> (42)
ND

>  <Reference> (42)
NTP261

>  <Formula> (42)
C6H5Cl

>  <SMILES> (42)
ClC1=CC=CC=C1

>  <Rat_Female_NTP> (42)
ND

>  <CAS> (42)
108-90-7

>  <Mouse_Female_NTP> (42)
ND

>  <Synonyms> (42)
Benzene chloride; chlorobenzene; Chlorobenzene Mono; Chlorobenzol; MCB; monochlorobenzene; Monochlorobenzol; Phenyl Chloride.

$$$$
43


  5  4  0  0  0  0  0  0  0  0999 V2000
   21.3367  -40.0015   -0.1244 C   0  0  0  0  0  0  0  0  0  0  0  0
   21.7964  -41.2995    1.2421 Br  0  0  0  0  0  0  0  0  0  0  0  0
   20.0795  -38.9214    0.4883 Cl  0  0  0  0  0  0  0  0  0  0  0  0
   20.9665  -40.5253   -1.0180 H   0  0  0  0  0  0  0  0  0  0  0  0
   22.9100  -38.9653   -0.5875 Br  0  0  0  0  0  0  0  0  0  0  0  0
  1  2  1  1  0  0  0
  1  3  1  0  0  0  0
  1  4  1  0  0  0  0
  1  5  1  6  0  0  0
M  END
>  <Substance ID> (43)
43

>  <Mouse_Female_Canc> (43)
3

>  <SAL> (43)
1

>  <Rat_Male_Canc> (43)
1

>  <TD50_Rat> (43)
NP

>  <TD50_Mouse> (43)
139

>  <Rat_Female_Canc> (43)
1

>  <Canc> (43)
3

>  <MolWeight> (43)
208.28

>  <Mouse_Male_Canc> (43)
2

>  <Mouse_Male_NTP> (43)
EE

>  <ChemName> (43)
Chlorodibromomethane

>  <Rat_Male_NTP> (43)
NE

>  <Reference> (43)
NTP282

>  <Formula> (43)
CHBr2Cl

>  <SMILES> (43)
ClC(Br)Br

>  <Rat_Female_NTP> (43)
NE

>  <CAS> (43)
124-48-1

>  <Mouse_Female_NTP> (43)
SE

>  <Synonyms> (43)
Dibromochloromethane; Dibromochloromethane; CDBM.

$$$$
44


 35 36  0  0  0  0  0  0  0  0999 V2000
   33.0175  -68.4717    0.0678 C   0  0  0  0  0  0  0  0  0  0  0  0
   33.4170  -69.7320   -0.1367 C   0  0  0  0  0  0  0  0  0  0  0  0
   35.7569  -69.1208   -0.0028 C   0  0  0  0  0  0  0  0  0  0  0  0
   35.3348  -67.7450    0.2250 C   0  0  0  0  0  0  0  0  0  0  0  0
   34.8451  -70.0744   -0.1719 C   0  0  0  0  0  0  0  0  0  0  0  0
   34.0410  -67.4387    0.2617 C   0  0  0  0  0  0  0  0  0  0  0  0
   31.6290  -68.0294    0.1124 N   0  0  0  0  0  0  0  0  0  0  0  0
   37.1165  -69.4169   -0.0442 N   0  0  0  0  0  0  0  0  0  0  0  0
   37.8982  -68.4975    0.0294 N   0  0  0  0  0  0  0  0  0  0  0  0
   39.2760  -68.7024    0.0070 C   0  0  0  0  0  0  0  0  0  0  0  0
   39.7808  -69.9344   -0.0276 C   0  0  0  0  0  0  0  0  0  0  0  0
   42.0472  -69.0676   -0.0327 C   0  0  0  0  0  0  0  0  0  0  0  0
   41.4877  -67.7157    0.0021 C   0  0  0  0  0  0  0  0  0  0  0  0
   41.2364  -70.1247   -0.0470 C   0  0  0  0  0  0  0  0  0  0  0  0
   40.1679  -67.5432    0.0218 C   0  0  0  0  0  0  0  0  0  0  0  0
   39.6328  -66.2589    0.0535 O   0  0  0  0  0  0  0  0  0  0  0  0
   31.4862  -67.0629    0.3058 H   0  0  0  0  0  0  0  0  0  0  0  0
   30.4201  -68.8223   -0.0994 C   0  0  0  0  0  0  0  0  0  0  0  0
   29.3390  -68.2303   -0.0116 O   0  0  0  0  0  0  0  0  0  0  0  0
   30.3733  -70.3028   -0.4283 C   0  0  0  0  0  0  0  0  0  0  0  0
   41.8131  -71.5089   -0.0808 C   0  0  0  0  0  0  0  0  0  0  0  0
   32.7342  -70.4508   -0.2674 H   0  0  0  0  0  0  0  0  0  0  0  0
   36.0203  -67.0285    0.3542 H   0  0  0  0  0  0  0  0  0  0  0  0
   35.1307  -71.0209   -0.3224 H   0  0  0  0  0  0  0  0  0  0  0  0
   33.7623  -66.4920    0.4234 H   0  0  0  0  0  0  0  0  0  0  0  0
   39.1708  -70.7267   -0.0402 H   0  0  0  0  0  0  0  0  0  0  0  0
   43.0386  -69.1980   -0.0459 H   0  0  0  0  0  0  0  0  0  0  0  0
   42.0963  -66.9223    0.0112 H   0  0  0  0  0  0  0  0  0  0  0  0
   40.3745  -65.5883    0.0598 H   0  0  0  0  0  0  0  0  0  0  0  0
   29.4212  -70.5941   -0.5215 H   0  0  0  0  0  0  0  0  0  0  0  0
   30.8098  -70.8220    0.3065 H   0  0  0  0  0  0  0  0  0  0  0  0
   30.8579  -70.4695   -1.2871 H   0  0  0  0  0  0  0  0  0  0  0  0
   42.8115  -71.4544   -0.0905 H   0  0  0  0  0  0  0  0  0  0  0  0
   41.4976  -71.9819   -0.9035 H   0  0  0  0  0  0  0  0  0  0  0  0
   41.5152  -72.0145    0.7289 H   0  0  0  0  0  0  0  0  0  0  0  0
  1  2  2  0  0  0  0
  3  4  1  0  0  0  0
  1  6  1  0  0  0  0
  2  5  1  0  0  0  0
  5  3  2  0  0  0  0
  4  6  2  0  0  0  0
  1  7  1  0  0  0  0
  3  8  1  0  0  0  0
  8  9  2  0  0  0  0
  9 10  1  0  0  0  0
 10 11  2  0  0  0  0
 12 13  1  0  0  0  0
 10 15  1  0  0  0  0
 11 14  1  0  0  0  0
 14 12  2  0  0  0  0
 13 15  2  0  0  0  0
 15 16  1  0  0  0  0
  7 17  1  0  0  0  0
  7 18  1  0  0  0  0
 18 19  2  0  0  0  0
 18 20  1  0  0  0  0
 14 21  1  0  0  0  0
  2 22  1  0  0  0  0
  4 23  1  0  0  0  0
  5 24  1  0  0  0  0
  6 25  1  0  0  0  0
 11 26  1  0  0  0  0
 12 27  1  0  0  0  0
 13 28  1  0  0  0  0
 16 29  1  0  0  0  0
 20 30  1  0  0  0  0
 20 31  1  0  0  0  0
 20 32  1  0  0  0  0
 21 33  1  0  0  0  0
 21 34  1  0  0  0  0
 21 35  1  0  0  0  0
M  END
>  <Substance ID> (44)
44

>  <Mouse_Female_Canc> (44)
3

>  <SAL> (44)
3

>  <Rat_Male_Canc> (44)
3

>  <TD50_Rat> (44)
380

>  <TD50_Mouse> (44)
1020

>  <Rat_Female_Canc> (44)
1

>  <Canc> (44)
3

>  <MolWeight> (44)
269.30

>  <Mouse_Male_Canc> (44)
1

>  <Mouse_Male_NTP> (44)
ND

>  <ChemName> (44)
C.I. Disperse Yellow 3

>  <Rat_Male_NTP> (44)
ND

>  <Reference> (44)
NTP222

>  <Formula> (44)
C15H15N3O2

>  <SMILES> (44)
O=C(Nc(ccc(N=Nc(c(O)ccc1C)c1)c2)c2)C

>  <Rat_Female_NTP> (44)
ND

>  <CAS> (44)
2832-40-8

>  <Mouse_Female_NTP> (44)
ND

>  <Synonyms> (44)
4'-(2-Hydroxy-5-methylphenylazo)acetanilide; cibacete yellow gba; cibacet yellow 2gc; vonteryl yellow g; vonteryl yellow r; yellow reliton g; celliton fast yellow g; safaritone yellow g; samaron yellow pa3; serinyl hosiery yellow gd; seriplas yellow gd; serisol fast yellow gd; setacyl yellow 2gn; setacyl yellow p-2gl; setacyl yellow g; silotras yellow tsg; supracet fast yellow g; synten yellow 2g; synton yellow 2g; terasil yellow gba extra; terasil yellow 2gc; tertranese yellow n-2gl; tuladisperse fast yellow 2g; dispersol fast yellow g; dispersol printing yellow g; dispersol yellow a-g; durgacet yellow g; durosperse yellow g; eastone yellow gn; esterquinone light yellow 4jl; estone yellow gn; fenacet fast yellow g; fenacet yellow g; genacron yellow g; hispacet fast yellow g; hisperse yellow g; interchem acetate yellow g; interchem disperse yellow gh; intraperse yellow gba; kayalon fast yellow g; kayaset yellow g; kca acetate fast yellow g; microsetile yellow gr; miketon fast yellow g; nacelan fast yellow cg; novalon yellow 2gn; nyloquinone light yellow 4jl; nyloquinone yellow 4j; ostacet yellow p2g; palacet yellow gn; palanil yellow g; pamacel yellow g-3; perliton yellow g; reliton yellow c; resiren yellow tg; 4'-((6-hydroxy-m-tolyl)azo)acetanilide; C.I. solvent yellow 77; acetamine yellow cg; acetate fast yellow g; acetoquinone light yellow; acetoquinone light yellow 4jlz; altco sperse fast yellow gfn new; amacel yellow g; artisil direct yellow g; artisil yellow g; artisil yellow 2gn; calcosyn yellow gc; calcosyn yellow gcn; celliton discharge yellow gl; celliton fast yellow ga; celliton fast yellow ga-cf; celliton yellow g; celutate yellow gh; C.I. 3/11855; cilla fast yellow g; diacelliton fast yellow g; disperse fast yellow g; Disperse Yellow 3; Disperse Yellow G; Disperse Yellow Z; Yellow Z; Fast Yellow GD; C.I. 11855; N-[4-[(2-hydroxy-5-methylphenyl)azo]phenyl]acetamide; Disperse yellow 3,ci 11855.

$$$$
45


 31 33  0  0  0  0  0  0  0  0999 V2000
   -0.0178    1.4584    0.0101 C   0  0  0  0  0  0  0  0  0  0  0  0
    0.0021   -0.0041    0.0020 C   0  0  0  0  0  0  0  0  0  0  0  0
    1.2123    2.1597    0.0021 C   0  0  0  0  0  0  0  0  0  0  0  0
   -1.2214    2.1722    0.0196 C   0  0  0  0  0  0  0  0  0  0  0  0
   -1.1562   -0.7144    0.0088 N   0  0  0  0  0  0  0  0  0  0  0  0
    1.2389   -0.6546   -0.0133 C   0  0  0  0  0  0  0  0  0  0  0  0
    2.4210    1.4407   -0.0138 C   0  0  0  0  0  0  0  0  0  0  0  0
    1.2005    3.5648    0.0097 C   0  0  0  0  0  0  0  0  0  0  0  0
   -1.1965    3.5357    0.0264 C   0  0  0  0  0  0  0  0  0  0  0  0
   -1.1221   -2.0039    0.0016 N   0  0  0  0  0  0  0  0  0  0  0  0
    2.4228    0.0815   -0.0207 C   0  0  0  0  0  0  0  0  0  0  0  0
    1.2878   -2.0103   -0.0206 O   0  0  0  0  0  0  0  0  0  0  0  0
    0.0113    4.2285    0.0246 C   0  0  0  0  0  0  0  0  0  0  0  0
   -2.2871   -2.7183    0.0084 C   0  0  0  0  0  0  0  0  0  0  0  0
   -2.2541   -4.1156    0.0006 C   0  0  0  0  0  0  0  0  0  0  0  0
   -3.5174   -2.0554    0.0291 C   0  0  0  0  0  0  0  0  0  0  0  0
   -3.4338   -4.8298    0.0076 C   0  0  0  0  0  0  0  0  0  0  0  0
   -4.6888   -2.7830    0.0358 C   0  0  0  0  0  0  0  0  0  0  0  0
   -4.6482   -4.1663    0.0218 C   0  0  0  0  0  0  0  0  0  0  0  0
   -2.1646    1.6462    0.0212 H   0  0  0  0  0  0  0  0  0  0  0  0
    3.3594    1.9752   -0.0199 H   0  0  0  0  0  0  0  0  0  0  0  0
    2.1295    4.1155    0.0042 H   0  0  0  0  0  0  0  0  0  0  0  0
   -2.1261    4.0854    0.0338 H   0  0  0  0  0  0  0  0  0  0  0  0
    3.3671   -0.4425   -0.0325 H   0  0  0  0  0  0  0  0  0  0  0  0
    1.2888   -2.2850   -0.9478 H   0  0  0  0  0  0  0  0  0  0  0  0
    0.0049    5.3085    0.0308 H   0  0  0  0  0  0  0  0  0  0  0  0
   -1.3071   -4.6347   -0.0112 H   0  0  0  0  0  0  0  0  0  0  0  0
   -3.5505   -0.9759    0.0401 H   0  0  0  0  0  0  0  0  0  0  0  0
   -3.4099   -5.9095    0.0016 H   0  0  0  0  0  0  0  0  0  0  0  0
   -5.6402   -2.2722    0.0521 H   0  0  0  0  0  0  0  0  0  0  0  0
   -5.5689   -4.7309    0.0268 H   0  0  0  0  0  0  0  0  0  0  0  0
  1  2  2  0  0  0  0
  1  3  1  0  0  0  0
  1  4  1  0  0  0  0
  2  5  1  0  0  0  0
  2  6  1  0  0  0  0
  3  7  2  0  0  0  0
  3  8  1  0  0  0  0
  4  9  2  0  0  0  0
  4 20  1  0  0  0  0
  5 10  2  0  0  0  0
  6 11  2  0  0  0  0
  6 12  1  0  0  0  0
  7 11  1  0  0  0  0
  7 21  1  0  0  0  0
  8 13  2  0  0  0  0
  8 22  1  0  0  0  0
  9 13  1  0  0  0  0
  9 23  1  0  0  0  0
 10 14  1  0  0  0  0
 11 24  1  0  0  0  0
 12 25  1  0  0  0  0
 13 26  1  0  0  0  0
 14 15  1  0  0  0  0
 14 16  2  0  0  0  0
 15 17  2  0  0  0  0
 15 27  1  0  0  0  0
 16 18  1  0  0  0  0
 16 28  1  0  0  0  0
 17 19  1  0  0  0  0
 17 29  1  0  0  0  0
 18 19  2  0  0  0  0
 18 30  1  0  0  0  0
 19 31  1  0  0  0  0
M  END
>  <Substance ID> (45)
45

>  <Mouse_Female_Canc> (45)
1

>  <SAL> (45)
3

>  <Rat_Male_Canc> (45)
3

>  <TD50_Rat> (45)
29.4

>  <TD50_Mouse> (45)
NP

>  <Rat_Female_Canc> (45)
3

>  <Canc> (45)
3

>  <MolWeight> (45)
248.28

>  <Mouse_Male_Canc> (45)
1

>  <Mouse_Male_NTP> (45)
ND

>  <ChemName> (45)
C.I. Solvent Yellow 14

>  <Rat_Male_NTP> (45)
ND

>  <Reference> (45)
NTP226

>  <Formula> (45)
C16H12N2O

>  <SMILES> (45)
OC1=CC=C2C(=C1/N=N/C3=CC=CC=C3)C=CC=C2

>  <Rat_Female_NTP> (45)
ND

>  <CAS> (45)
842-07-9

>  <Mouse_Female_NTP> (45)
ND

>  <Synonyms> (45)
1,2-naphthoquinone-1-phenylhydrazone; 1-benzeneazo-2-naphthol; 1-(phenylazo)-2-Naphthalenol; 1-Phenylazo-2-naphthol; 1-phenylazo-beta-naphthol; atul orange r; benzene-1-azo-2-naphthol; benzeneazo-beta-naphthol; dispersol yellow pp; brasilazina oil orange; brilliant oil orange r; calcogas m; calcogas orange nc; calco oil orange 7078; calco oil orange 7078-y; calco oil orange z-7078; campbelline oil orange; carminaph; ceres orange r; cerotinorange g; C.I. 12055; dunkelgelb; enial orange i; fast oil orange; fast oil orange i; fast orange; fat orange 4a; fat orange g; fat orange i; fat orange r; fat orange rs; fettorange 4a; fettorange lg; fettorange r; grasal orange; grasan orange r; hidaco oil orange; lacquer orange vg; motiorange r; stearix orange; Oil Orange; oil orange 2311; oil orange 2b; oil orange 31; oil orange 7078-v; oil orange e; oil orange ep; oil orange g; oil orange pel; oil orange r; oil orange r-14; oil orange z-7078; oleal orange r; orange 2 insoluble; orange 3RA soluble in grease; orange a l'huile; orange insoluble olg; orange pel; orange resenole no. 3; orange r fat soluble; orange soluble a l'huile; organol orange; orient oil orange ps; petrol orange y; plastoresin orange f4a; pyronalorange; resinol orange r; resoform orange g; sansel orange g; Scarlet B; scharlach b; silotras orange tr; solvent yellow 14; somalia orange i; soudan i; spirit orange; spirit yellow i; sudan 1; Sudan I; sudan j; sudan orange r; sudan orange ra; sudan orange ra new; toyo oil orange; tertrogras orange sv; waxakol orange gl; waxoline yellow i; waxoline yellow im; waxoline yellow ip; waxoline yellow is.

$$$$
46


 24 24  0  0  0  0  0  0  0  0999 V2000
   35.8333  -85.5288   -0.0024 C   0  0  0  0  0  0  0  0  0  0  0  0
   36.5516  -86.6496   -0.0444 C   0  0  0  0  0  0  0  0  0  0  0  0
   38.6156  -85.3902    0.0171 C   0  0  0  0  0  0  0  0  0  0  0  0
   37.8269  -84.1826    0.0637 C   0  0  0  0  0  0  0  0  0  0  0  0
   38.0097  -86.5787   -0.0339 C   0  0  0  0  0  0  0  0  0  0  0  0
   36.5073  -84.2546    0.0549 C   0  0  0  0  0  0  0  0  0  0  0  0
   40.0042  -85.2774    0.0266 O   0  0  0  0  0  0  0  0  0  0  0  0
   40.6324  -86.5584   -0.0266 C   0  0  0  0  0  0  0  0  0  0  0  0
   34.3761  -85.6487   -0.0177 C   0  0  0  0  0  0  0  0  0  0  0  0
   33.4079  -84.4367   -0.0016 C   0  0  0  0  0  0  0  0  0  0  0  0
   33.9799  -86.8073   -0.0516 O   0  0  0  0  0  0  0  0  0  0  0  0
   32.0688  -84.5286    0.0030 C   0  0  0  0  0  0  0  0  0  0  0  0
   31.1837  -85.7168    0.0011 C   0  0  0  0  0  0  0  0  0  0  0  0
   29.9627  -85.5257   -0.0011 O   0  0  0  0  0  0  0  0  0  0  0  0
   31.6383  -87.0108    0.0072 O   0  5  0  0  0  0  0  0  0  0  0  0
   34.0342  -82.6159    0.0081 Br  0  0  0  0  0  0  0  0  0  0  0  0
   36.0933  -87.5376   -0.0832 H   0  0  0  0  0  0  0  0  0  0  0  0
   38.2789  -83.2914    0.1028 H   0  0  0  0  0  0  0  0  0  0  0  0
   38.5529  -87.4177   -0.0649 H   0  0  0  0  0  0  0  0  0  0  0  0
   35.9680  -83.4132    0.0883 H   0  0  0  0  0  0  0  0  0  0  0  0
   41.6257  -86.4437   -0.0184 H   0  0  0  0  0  0  0  0  0  0  0  0
   40.3588  -87.0299   -0.8650 H   0  0  0  0  0  0  0  0  0  0  0  0
   40.3534  -87.1003    0.7662 H   0  0  0  0  0  0  0  0  0  0  0  0
   31.5898  -83.6508    0.0086 H   0  0  0  0  0  0  0  0  0  0  0  0
  1  2  2  0  0  0  0
  3  4  1  0  0  0  0
  1  6  1  0  0  0  0
  2  5  1  0  0  0  0
  5  3  2  0  0  0  0
  4  6  2  0  0  0  0
  3  7  1  0  0  0  0
  7  8  1  0  0  0  0
  1  9  1  0  0  0  0
  9 10  1  0  0  0  0
  9 11  2  0  0  0  0
 10 12  2  0  0  0  0
 12 13  1  0  0  0  0
 13 14  2  0  0  0  0
 13 15  1  0  0  0  0
 10 16  1  0  0  0  0
  2 17  1  0  0  0  0
  4 18  1  0  0  0  0
  5 19  1  0  0  0  0
  6 20  1  0  0  0  0
  8 21  1  0  0  0  0
  8 22  1  0  0  0  0
  8 23  1  0  0  0  0
 12 24  1  0  0  0  0
M  END
>  <Substance ID> (46)
46

>  <Mouse_Female_Canc> (46)
1

>  <SAL> (46)
3

>  <Rat_Male_Canc> (46)
3

>  <TD50_Rat> (46)
277

>  <TD50_Mouse> (46)
NP

>  <Rat_Female_Canc> (46)
3

>  <Canc> (46)
3

>  <MolWeight> (46)
307.07

>  <Mouse_Male_Canc> (46)
1

>  <Mouse_Male_NTP> (46)
ND

>  <ChemName> (46)
Cytembena

>  <Rat_Male_NTP> (46)
ND

>  <Reference> (46)
NTP207

>  <Formula> (46)
C11H8BrO4Na

>  <SMILES> (46)
O=C(/C=C(/Br)C(=O)C1=CC=C(C=C1)OC)[O-].[Na+]

>  <Rat_Female_NTP> (46)
ND

>  <CAS> (46)
21739-91-3

>  <Mouse_Female_NTP> (46)
ND

>  <Synonyms> (46)
MBBA; (E)-3-p-anisoyl-3-bromoacrylic acid sodium salt; (E)-3-bromo-4-(4-methoxyphenyl)-4-oxo-2-butenoic acid sodium salt.

$$$$
47
 

 75 78  0  0  0  0  0  0  0  0999 V2000
   12.8700   -7.3722    0.0021 C   0  0  0  0  0  0  0  0  0  1  0  0
   12.9576   -8.8542    0.0229 C   0  0  0  0  0  0  0  0  0  2  0  0
   13.9793   -6.6268   -0.0041 C   0  0  0  0  0  0  0  0  0  3  0  0
   11.5614   -6.7115   -0.0002 C   0  0  0  0  0  0  0  0  0  4  0  0
   11.7171   -9.6013    0.0245 N   0  0  0  0  0  0  0  0  0  5  0  0
   14.1852   -9.4242    0.0388 C   0  0  0  0  0  0  0  0  0  6  0  0
   15.2806   -7.2564    0.0006 C   0  0  0  0  0  0  0  0  0  7  0  0
   13.8926   -5.1667   -0.0154 C   0  0  0  0  0  0  0  0  0  8  0  0
   11.4834   -5.3800   -0.0084 C   0  0  0  0  0  0  0  0  0  9  0  0
   11.6759  -10.8130   -0.0118 N   0  0  0  0  0  0  0  0  0 10  0  0
   15.3770   -8.5784    0.0216 C   0  0  0  0  0  0  0  0  0 11  0  0
   14.4170  -10.8034    0.0782 O   0  0  0  0  0  0  0  0  0 12  0  0
   12.7039   -4.5706   -0.0158 C   0  0  0  0  0  0  0  0  0 13  0  0
   10.4703  -11.5276   -0.0055 C   0  0  0  0  0  0  0  0  0 14  0  0
   10.4817  -13.0109   -0.0293 C   0  0  0  0  0  0  0  0  0 15  0  0
    9.3063  -10.8798    0.0259 C   0  0  0  0  0  0  0  0  0 16  0  0
    9.3333  -13.6818   -0.0136 C   0  0  0  0  0  0  0  0  0 17  0  0
   12.0010  -13.9331   -0.0767 S   0  0  0  0  0  0  0  0  0 18  0  0
    8.0452  -11.6369    0.0393 C   0  0  0  0  0  0  0  0  0 19  0  0
    8.0637  -12.9689    0.0227 C   0  0  0  0  0  0  0  0  0 20  0  0
   12.5055  -14.1183    1.3421 O   0  0  0  0  0  0  0  0  0 21  0  0
   11.7397  -15.2995   -0.6807 O   0  0  0  0  0  0  0  0  0 22  0  0
   13.1787  -13.1181   -0.9823 O   0  5  0  0  0  0  0  0  0 23  0  0
    6.7329  -10.9106    0.0733 C   0  0  0  0  0  0  0  0  0 24  0  0
    6.5823  -13.8586    0.0433 Cl  0  0  0  0  0  0  0  0  0 25  0  0
   10.7131   -7.2410   -0.0023 H   0  0  0  0  0  0  0  0  0 26  0  0
   16.1160   -6.7068    0.0019 H   0  0  0  0  0  0  0  0  0 27  0  0
   14.7410   -4.6376   -0.0358 H   0  0  0  0  0  0  0  0  0 28  0  0
   10.5918   -4.9272   -0.0196 H   0  0  0  0  0  0  0  0  0 29  0  0
   16.2816   -9.0046    0.0258 H   0  0  0  0  0  0  0  0  0 30  0  0
   13.6164  -11.2975    0.1097 H   0  0  0  0  0  0  0  0  0 31  0  0
   12.6436   -3.5724   -0.0212 H   0  0  0  0  0  0  0  0  0 32  0  0
    9.2762   -9.8804    0.0441 H   0  0  0  0  0  0  0  0  0 33  0  0
    9.3426  -14.6816   -0.0346 H   0  0  0  0  0  0  0  0  0 34  0  0
    5.9844  -11.5736    0.0785 H   0  0  0  0  0  0  0  0  0 35  0  0
    6.6541  -10.3258   -0.7341 H   0  0  0  0  0  0  0  0  0 36  0  0
    6.6844  -10.3475    0.8983 H   0  0  0  0  0  0  0  0  0 37  0  0
   17.7861  -23.2717   -0.0081 C   0  0  0  0  0  0  0  0  0 38  0  0
   17.6162  -21.7964   -0.0298 C   0  0  0  0  0  0  0  0  0 39  0  0
   16.7230  -24.0786    0.0038 C   0  0  0  0  0  0  0  0  0 40  0  0
   19.1319  -23.8537   -0.0045 C   0  0  0  0  0  0  0  0  0 41  0  0
   18.8147  -20.9840   -0.0343 N   0  0  0  0  0  0  0  0  0 42  0  0
   16.3589  -21.2957   -0.0450 C   0  0  0  0  0  0  0  0  0 43  0  0
   15.3871  -23.5243   -0.0010 C   0  0  0  0  0  0  0  0  0 44  0  0
   16.8950  -25.5317    0.0195 C   0  0  0  0  0  0  0  0  0 45  0  0
   19.2879  -25.1780    0.0078 C   0  0  0  0  0  0  0  0  0 46  0  0
   18.7955  -19.7723    0.0004 N   0  0  0  0  0  0  0  0  0 47  0  0
   15.2155  -22.2095   -0.0249 C   0  0  0  0  0  0  0  0  0 48  0  0
   16.0511  -19.9300   -0.0845 O   0  0  0  0  0  0  0  0  0 49  0  0
   18.1168  -26.0573    0.0202 C   0  0  0  0  0  0  0  0  0 50  0  0
   19.9684  -19.0028   -0.0026 C   0  0  0  0  0  0  0  0  0 51  0  0
   19.8884  -17.5227    0.0321 C   0  0  0  0  0  0  0  0  0 52  0  0
   21.1619  -19.5948   -0.0363 C   0  0  0  0  0  0  0  0  0 53  0  0
   21.0029  -16.7960    0.0245 C   0  0  0  0  0  0  0  0  0 54  0  0
   18.3266  -16.6815    0.0823 S   0  0  0  0  0  0  0  0  0 55  0  0
   22.3888  -18.7751   -0.0393 C   0  0  0  0  0  0  0  0  0 56  0  0
   22.3064  -17.4456   -0.0126 C   0  0  0  0  0  0  0  0  0 57  0  0
   17.7962  -16.5505   -1.3330 O   0  0  0  0  0  0  0  0  0 58  0  0
   18.5200  -15.2934    0.6621 O   0  0  0  0  0  0  0  0  0 59  0  0
   17.2071  -17.5504    1.0132 O   0  5  0  0  0  0  0  0  0 60  0  0
   23.7351  -19.4366   -0.0745 C   0  0  0  0  0  0  0  0  0 61  0  0
   23.7433  -16.4852   -0.0220 Cl  0  0  0  0  0  0  0  0  0 62  0  0
   19.9506  -23.2796   -0.0044 H   0  0  0  0  0  0  0  0  0 63  0  0
   14.5830  -24.1188   -0.0037 H   0  0  0  0  0  0  0  0  0 64  0  0
   16.0745  -26.1027    0.0471 H   0  0  0  0  0  0  0  0  0 65  0  0
   20.2042  -25.5783    0.0217 H   0  0  0  0  0  0  0  0  0 66  0  0
   14.2880  -21.8354   -0.0293 H   0  0  0  0  0  0  0  0  0 67  0  0
   16.8252  -19.3902   -0.1154 H   0  0  0  0  0  0  0  0  0 68  0  0
   18.2354  -27.0502    0.0291 H   0  0  0  0  0  0  0  0  0 69  0  0
   21.2419  -20.5912   -0.0640 H   0  0  0  0  0  0  0  0  0 70  0  0
   20.9414  -15.7985    0.0595 H   0  0  0  0  0  0  0  0  0 71  0  0
   24.4505  -18.7378   -0.0717 H   0  0  0  0  0  0  0  0  0 72  0  0
   23.8136  -19.9899   -0.9037 H   0  0  0  0  0  0  0  0  0 73  0  0
   23.8399  -20.0233    0.7285 H   0  0  0  0  0  0  0  0  0 74  0  0
   15.3617  -14.6538   -0.5251 Ba  0  2  0  0  0  0  0  0  0 75  0  0
  2  1  1  0  0  0  0
  3  1  2  0  0  0  0
  4  1  1  0  0  0  0
  5  2  1  0  0  0  0
  6  2  2  0  0  0  0
  7  3  1  0  0  0  0
  8  3  1  0  0  0  0
  9  4  2  0  0  0  0
 26  4  1  0  0  0  0
 10  5  2  0  0  0  0
 11  6  1  0  0  0  0
 12  6  1  0  0  0  0
 11  7  2  0  0  0  0
 27  7  1  0  0  0  0
 13  8  2  0  0  0  0
 28  8  1  0  0  0  0
 13  9  1  0  0  0  0
 29  9  1  0  0  0  0
 14 10  1  0  0  0  0
 30 11  1  0  0  0  0
 31 12  1  0  0  0  0
 32 13  1  0  0  0  0
 15 14  1  0  0  0  0
 16 14  2  0  0  0  0
 17 15  2  0  0  0  0
 18 15  1  0  0  0  0
 19 16  1  0  0  0  0
 33 16  1  0  0  0  0
 20 17  1  0  0  0  0
 34 17  1  0  0  0  0
 21 18  2  0  0  0  0
 22 18  2  0  0  0  0
 23 18  1  0  0  0  0
 24 19  1  0  0  0  0
 20 19  2  0  0  0  0
 25 20  1  0  0  0  0
 35 24  1  0  0  0  0
 36 24  1  0  0  0  0
 37 24  1  0  0  0  0
 39 38  1  0  0  0  0
 40 38  2  0  0  0  0
 41 38  1  0  0  0  0
 42 39  1  0  0  0  0
 43 39  2  0  0  0  0
 44 40  1  0  0  0  0
 45 40  1  0  0  0  0
 46 41  2  0  0  0  0
 63 41  1  0  0  0  0
 47 42  2  0  0  0  0
 48 43  1  0  0  0  0
 49 43  1  0  0  0  0
 48 44  2  0  0  0  0
 64 44  1  0  0  0  0
 50 45  2  0  0  0  0
 65 45  1  0  0  0  0
 50 46  1  0  0  0  0
 66 46  1  0  0  0  0
 51 47  1  0  0  0  0
 67 48  1  0  0  0  0
 68 49  1  0  0  0  0
 69 50  1  0  0  0  0
 52 51  1  0  0  0  0
 53 51  2  0  0  0  0
 54 52  2  0  0  0  0
 55 52  1  0  0  0  0
 56 53  1  0  0  0  0
 70 53  1  0  0  0  0
 57 54  1  0  0  0  0
 71 54  1  0  0  0  0
 58 55  2  0  0  0  0
 59 55  2  0  0  0  0
 60 55  1  0  0  0  0
 61 56  1  0  0  0  0
 57 56  2  0  0  0  0
 62 57  1  0  0  0  0
 72 61  1  0  0  0  0
 73 61  1  0  0  0  0
 74 61  1  0  0  0  0
M  END
>  <Substance ID> (47)
47

>  <Mouse_Female_Canc> (47)
1

>  <SAL> (47)
3

>  <Rat_Male_Canc> (47)
3

>  <TD50_Rat> (47)
146

>  <TD50_Mouse> (47)
ND

>  <Rat_Female_Canc> (47)
2

>  <Canc> (47)
3

>  <MolWeight> (47)
888.95

>  <Mouse_Male_Canc> (47)
1

>  <Mouse_Male_NTP> (47)
ND

>  <ChemName> (47)
D&C Red no. 9 

>  <Rat_Male_NTP> (47)
ND

>  <Reference> (47)
NTP225

>  <Formula> (47)
C34H24BaCl2N4O8S2

>  <SMILES> (47)
[Ba+2].Clc3cc(c(/N=N/c2c1ccccc1ccc2O)cc3C)S([O-])(=O)=O.[O-]S(=O)(=O)c3cc(Cl)c(cc3/N=N/c2c1ccccc1ccc2O)C

>  <Rat_Female_NTP> (47)
ND

>  <CAS> (47)
5160-02-1

>  <Mouse_Female_NTP> (47)
ND

>  <Synonyms> (47)
1-(4-chloro-o-sulfo-5-tolylazo)-2-naphthol, barium salt; 1860 red; cosmetic coral red ko bluish; cosmetic dvr; cosmetic pigment yellow red dvr; C Red No. 9; dainichi lake red c; d&c red 9; desert red; duplex red lake C20-5925; eljon lake red c; hamilton red; helio red toner lcll; irgalite red cbn; irgalite red cbr; irgalite red cbt; irgalite red mbc; isol lake red lcs 12527; isol red lcr 2517; lake red 1520; Lake Red C; lake red c 18287; lake red c 18958; lake red c 21245; lake red c 27200; lake red c 27217; lake red c 27218; Lake Red CBA; lake red c barium toner; lake red cc; lake red cct; lake red cr; lake red crlc-232 (barium); lake red c toner 8195; lake red c toner 8366; lake red gb barium salt; lake red rrg; lake red toner c; lake red toner lcll; latexol scarlet r; ld rubber red 16913; lutetia red cln; lutetia red cln-st; microtex lake red cr; mohican red a-8008; no. 3 conc. bronze scarlet; no.3 conc. scarlet; paridine red lcl; pigment lake red bfc; pigment lake red cd; pigment lake red lc; Pigment Red 53(Ba); pigment red cd; potomac red; recolite red lake c; recolite red lake cr; red 11938; red 16913H; red 1860; red for lake c; red for lake c toner ra-5190; red for lake toner ra-5190; Red Lake C; red lake cm 20-5650; red lake cr-1; red lake c toner; red lake c toner 20-5650; red lake c toner ra-5190; red lake r-91; red scarlet; red toner z; rubber red 16913R; Rubber Red LCB; sanyo lake red c; scarlet toner y; segnale red lc; segnale red lcg; segnale red lcl; sico lake red 2l; superol red c rt-265; symuler lake red c; termosolido red lcg; texan red toner d; toner lake red c; transparent bronze scarlet; vulcafix scarlet r; vulcafix scarlet r-d masse; vulcafor red 2R; vulcan red lc; vulcol fast red l; wayne red x-2486; 5-Chloro-2-((2-Hydroxy-1-naphthyl)Azo)-4-Methylbenzenesulfonic Acid, Barium Salt; 5-chloro-2-((2-hydroxy-1-naphthyl)azo)-p-toluenesulfonic acid, barium salt; 5-Chloro-4-methyl-2-(2-hydroxynaphthylazo)benzenesulfonic acid barium salt; Barium [5-chloro-4-methyl-2-(2-hydroxynaphthylazo)benzenesulfonate]; barium bis[2-chloro-5-[(2-hydroxy-1-naphthyl)azo]toluene-4-sulfonate]; Benzenesulfonic acid, 5-chloro-2-[(2-hydroxy-1-naphthyl)azo]-4-methyl-, barium salt (2:1); bright red; Brilliant red; brilliant scarlet; brilliant toner z; bronze red 16913 yellowish; Bronze Red C; bronze red ro; bronze scarlet; bronze scarlet c; bronze scarlet ca; bronze scarlet cba; bronze scarlet ct; bronze scarlet cta; bronze scarlet toner; C.I. 15585:1; C.I. pigment red; C.I. pigment red 53:1; C.I. pigment red 53, barium salt.

$$$$
48


 11 10  0  0  0  0  0  0  0  0999 V2000
    5.8372   -3.1506    0.8185 C   0  0  0  0  0  0  0  0  0  0  0  0
    7.0884   -3.2008   -0.0781 C   0  0  1  0  0  0  0  0  0  0  0  0
    8.3504   -3.0522    0.7919 C   0  0  0  0  0  0  0  0  0  0  0  0
    4.2469   -3.3363   -0.2772 Br  0  0  0  0  0  0  0  0  0  0  0  0
    7.1446   -4.8967   -1.0165 Br  0  0  0  0  0  0  0  0  0  0  0  0
    9.7856   -3.1073   -0.2372 Cl  0  0  0  0  0  0  0  0  0  0  0  0
    5.8732   -3.8974    1.4825 H   0  0  0  0  0  0  0  0  0  0  0  0
    5.8085   -2.2754    1.3015 H   0  0  0  0  0  0  0  0  0  0  0  0
    7.0523   -2.4540   -0.7423 H   0  0  0  0  0  0  0  0  0  0  0  0
    8.3206   -2.1775    1.2755 H   0  0  0  0  0  0  0  0  0  0  0  0
    8.3874   -3.7994    1.4555 H   0  0  0  0  0  0  0  0  0  0  0  0
  1  2  1  0  0  0  0
  2  3  1  0  0  0  0
  1  4  1  0  0  0  0
  2  5  1  0  0  0  0
  3  6  1  0  0  0  0
  1  7  1  0  0  0  0
  1  8  1  0  0  0  0
  2  9  1  0  0  0  0
  3 10  1  0  0  0  0
  3 11  1  0  0  0  0
M  END
>  <Substance ID> (48)
48

>  <Mouse_Female_Canc> (48)
3

>  <SAL> (48)
3

>  <Rat_Male_Canc> (48)
3

>  <TD50_Rat> (48)
0.259

>  <TD50_Mouse> (48)
2.72

>  <Rat_Female_Canc> (48)
3

>  <Canc> (48)
3

>  <MolWeight> (48)
236.33

>  <Mouse_Male_Canc> (48)
3

>  <Mouse_Male_NTP> (48)
ND

>  <ChemName> (48)
1,2-Dibromo-3-Chloropropane

>  <Rat_Male_NTP> (48)
ND

>  <Reference> (48)
NTP206

>  <Formula> (48)
C3H5Br2Cl

>  <SMILES> (48)
BrC(CCl)CBr

>  <Rat_Female_NTP> (48)
ND

>  <CAS> (48)
96-12-8

>  <Mouse_Female_NTP> (48)
ND

>  <Synonyms> (48)
1,3-Dibromo-3-chloropropane; os 1897; oxy dbcp; sd 1897; 1-chloro-2,3-dibromopropane; 3-chloro-1,2-dibromopropane; BBC 12; Dibromo-3-chloropropane, 1,2- (DBCP); dibromochloropropane; CBCP; DBCP; fumagon; Fumazone; fumazone 86; nemabrom; Nemafume; Nemagon; nemagon 20; nemagon 206; nemagon 20g; nemagon 90; nemagon soil fumigant; Nemanax; nemapaz; Nemaset; Nematocide; nematox; nemazon.

$$$$
49


  8  7  0  0  0  0  0  0  0  0999 V2000
    4.0008  -10.8894    0.0004 Br  0  0  0  0  0  0  0  0  0  0  0  0
    5.6723   -9.9049   -0.0001 C   0  0  0  0  0  0  0  0  0  0  0  0
    6.8518  -10.8949    0.0001 C   0  0  0  0  0  0  0  0  0  0  0  0
    8.5234   -9.9104   -0.0004 Br  0  0  0  0  0  0  0  0  0  0  0  0
    5.7201   -9.3300   -0.8170 H   0  0  0  0  0  0  0  0  0  0  0  0
    5.7202   -9.3294    0.8163 H   0  0  0  0  0  0  0  0  0  0  0  0
    6.8041  -11.4697    0.8170 H   0  0  0  0  0  0  0  0  0  0  0  0
    6.8039  -11.4704   -0.8163 H   0  0  0  0  0  0  0  0  0  0  0  0
  1  2  1  0  0  0  0
  2  3  1  0  0  0  0
  3  4  1  0  0  0  0
  2  5  1  0  0  0  0
  2  6  1  0  0  0  0
  3  7  1  0  0  0  0
  3  8  1  0  0  0  0
M  END
>  <Substance ID> (49)
49

>  <Mouse_Female_Canc> (49)
3

>  <SAL> (49)
3

>  <Rat_Male_Canc> (49)
3

>  <TD50_Rat> (49)
1.52

>  <TD50_Mouse> (49)
7.45

>  <Rat_Female_Canc> (49)
3

>  <Canc> (49)
3

>  <MolWeight> (49)
187.86

>  <Mouse_Male_Canc> (49)
3

>  <Mouse_Male_NTP> (49)
ND

>  <ChemName> (49)
1,2-dibromoethane

>  <Rat_Male_NTP> (49)
ND

>  <Reference> (49)
NTP210

>  <Formula> (49)
C2H4Br2

>  <SMILES> (49)
BrCCBr

>  <Rat_Female_NTP> (49)
ND

>  <CAS> (49)
106-93-4

>  <Mouse_Female_NTP> (49)
ND

>  <Synonyms> (49)
Kopfume; Nephis; pestmaster; pestmaster edb-85; soilbrom-100; soilbrom-40; soilbrom-85; soilbrom-90; Soilbrom 90EC; soilfume; sym-dibromoethane; unifume; Aadibroom; alpha,beta-dibromoethane; dibromoethane; Dibromoethane, 1,2-; Dibromoethylene; Bromofume; Celmide; DBE; dowfume 40; dowfume edb; dowfume w-100; dowfume w-8; Dowfume W 85; dowfume w-90; EDB; EDB-85; E-D-Bee; Ethylene Dibromide; Ethylene Bromide; fumo-gas; Garden dowfume; Glycol Dibromide; glycol bromide; iscobrome d.

$$$$
50


 16 16  0  0  0  0  0  0  0  0999 V2000
    7.3443  -19.5482   -0.0002 C   0  0  0  0  0  0  0  0  0  0  0  0
    7.3822  -18.2173    0.0001 C   0  0  0  0  0  0  0  0  0  0  0  0
    4.9652  -18.0827   -0.0003 C   0  0  0  0  0  0  0  0  0  0  0  0
    4.9226  -19.5455   -0.0007 C   0  0  0  0  0  0  0  0  0  0  0  0
    6.1367  -17.4498    0.0000 C   0  0  0  0  0  0  0  0  0  0  0  0
    6.0566  -20.2435   -0.0004 C   0  0  0  0  0  0  0  0  0  0  0  0
    6.1761  -16.0543    0.0005 N   0  0  0  0  0  0  0  0  0  0  0  0
    3.4942  -17.1768   -0.0003 Cl  0  0  0  0  0  0  0  0  0  0  0  0
    8.9028  -17.3962   -0.0006 Cl  0  0  0  0  0  0  0  0  0  0  0  0
    6.0179  -21.6395    0.0009 N   0  0  0  0  0  0  0  0  0  0  0  0
    8.1958  -20.0727   -0.0002 H   0  0  0  0  0  0  0  0  0  0  0  0
    4.0426  -20.0205   -0.0011 H   0  0  0  0  0  0  0  0  0  0  0  0
    5.3245  -15.5300    0.0004 H   0  0  0  0  0  0  0  0  0  0  0  0
    7.0558  -15.5789    0.0009 H   0  0  0  0  0  0  0  0  0  0  0  0
    5.1383  -22.1153    0.0007 H   0  0  0  0  0  0  0  0  0  0  0  0
    6.8697  -22.1633    0.0020 H   0  0  0  0  0  0  0  0  0  0  0  0
  1  2  2  0  0  0  0
  3  4  1  0  0  0  0
  1  6  1  0  0  0  0
  2  5  1  0  0  0  0
  5  3  2  0  0  0  0
  4  6  2  0  0  0  0
  5  7  1  0  0  0  0
  3  8  1  0  0  0  0
  2  9  1  0  0  0  0
  6 10  1  0  0  0  0
  1 11  1  0  0  0  0
  4 12  1  0  0  0  0
  7 13  1  0  0  0  0
  7 14  1  0  0  0  0
 10 15  1  0  0  0  0
 10 16  1  0  0  0  0
M  END
>  <Substance ID> (50)
50

>  <Mouse_Female_Canc> (50)
3

>  <SAL> (50)
3

>  <Rat_Male_Canc> (50)
1

>  <TD50_Rat> (50)
NP

>  <TD50_Mouse> (50)
803

>  <Rat_Female_Canc> (50)
1

>  <Canc> (50)
3

>  <MolWeight> (50)
177.03

>  <Mouse_Male_Canc> (50)
3

>  <Mouse_Male_NTP> (50)
ND

>  <ChemName> (50)
2,6-Dichloro-para-phenylenediamine 

>  <Rat_Male_NTP> (50)
ND

>  <Reference> (50)
NTP219

>  <Formula> (50)
C6H6Cl2N2

>  <SMILES> (50)
NC1=C(C=C(C=C1Cl)N)Cl

>  <Rat_Female_NTP> (50)
ND

>  <CAS> (50)
609-20-1

>  <Mouse_Female_NTP> (50)
ND

>  <Synonyms> (50)
1,4-diamino-2,6-dichlorobenzene; 2,5-diamino-1,3-dichlorobenzene; 2,6-dichloro-1,4-benzenediamine; 2,6-dichloro-1,4-phenylenediamine; C.I. 37020; daito brown salt rr; fast brown rr salt.

$$$$
51


 11 10  0  0  0  0  0  0  0  0999 V2000
    3.7848  -28.0964   -0.1426 Cl  0  0  0  0  0  0  0  0  0  0  0  0
    5.2892  -27.2849    0.3035 C   0  0  0  0  0  0  0  0  0  0  0  0
    6.4762  -28.0031   -0.3639 C   0  0  1  0  0  0  0  0  0  0  0  0
    7.7883  -27.2972    0.0247 C   0  0  0  0  0  0  0  0  0  0  0  0
    6.5274  -29.6839    0.1782 Cl  0  0  0  0  0  0  0  0  0  0  0  0
    5.2591  -26.3340   -0.0045 H   0  0  0  0  0  0  0  0  0  0  0  0
    5.3999  -27.3107    1.2970 H   0  0  0  0  0  0  0  0  0  0  0  0
    6.3660  -27.9767   -1.3575 H   0  0  0  0  0  0  0  0  0  0  0  0
    8.5594  -27.7636   -0.4087 H   0  0  0  0  0  0  0  0  0  0  0  0
    7.8996  -27.3230    1.0182 H   0  0  0  0  0  0  0  0  0  0  0  0
    7.7593  -26.3460   -0.2825 H   0  0  0  0  0  0  0  0  0  0  0  0
  1  2  1  0  0  0  0
  2  3  1  0  0  0  0
  3  4  1  0  0  0  0
  3  5  1  0  0  0  0
  2  6  1  0  0  0  0
  2  7  1  0  0  0  0
  3  8  1  0  0  0  0
  4  9  1  0  0  0  0
  4 10  1  0  0  0  0
  4 11  1  0  0  0  0
M  END
>  <Substance ID> (51)
51

>  <Mouse_Female_Canc> (51)
3

>  <SAL> (51)
2

>  <Rat_Male_Canc> (51)
1

>  <TD50_Rat> (51)
NP

>  <TD50_Mouse> (51)
276

>  <Rat_Female_Canc> (51)
2

>  <Canc> (51)
3

>  <MolWeight> (51)
112.99

>  <Mouse_Male_Canc> (51)
3

>  <Mouse_Male_NTP> (51)
SE

>  <ChemName> (51)
1,2-Dichloropropane 

>  <Rat_Male_NTP> (51)
NE

>  <Reference> (51)
NTP263

>  <Formula> (51)
C3H6Cl2

>  <SMILES> (51)
CC(CCl)Cl

>  <Rat_Female_NTP> (51)
EE

>  <CAS> (51)
78-87-5

>  <Mouse_Female_NTP> (51)
SE

>  <Synonyms> (51)
1,2-DICHLOROPROPANE (PROPYLENE DICHLORIDE); alpha,beta-dichloropropane; alpha,beta-propylene dichloride; dichloropropane; Dichloropropane, 1,2-; Dichloropropanes; Propylene Dichloride; Propylene Chloride.

$$$$
52


 68 67  0  0  0  0  0  0  0  0999 V2000
    4.1795  -35.5455    0.2348 C   0  0  0  0  0  0  0  0  0  0  0  0
    5.5225  -36.2077   -0.1345 C   0  0  0  0  0  0  0  0  0  0  0  0
    6.6770  -35.2948    0.3149 C   0  0  0  0  0  0  0  0  0  0  0  0
    8.0492  -35.9185   -0.0728 C   0  0  0  0  0  0  0  0  0  0  0  0
    9.3255  -35.0417    0.2933 C   0  0  1  0  0  0  0  0  0  0  0  0
   10.5849  -35.8819   -0.0295 C   0  0  0  0  0  0  0  0  0  0  0  0
   11.7461  -35.1042    0.3188 O   0  0  0  0  0  0  0  0  0  0  0  0
   12.9361  -35.7829    0.0146 C   0  0  0  0  0  0  0  0  0  0  0  0
   12.9028  -36.9117   -0.4846 O   0  0  0  0  0  0  0  0  0  0  0  0
   14.2654  -35.1123    0.2977 C   0  0  0  0  0  0  0  0  0  0  0  0
   15.4471  -36.0071   -0.1538 C   0  0  0  0  0  0  0  0  0  0  0  0
   16.7905  -35.2851    0.1391 C   0  0  0  0  0  0  0  0  0  0  0  0
   17.9784  -36.1688   -0.3146 C   0  0  0  0  0  0  0  0  0  0  0  0
   19.2973  -35.4886   -0.0282 C   0  0  0  0  0  0  0  0  0  0  0  0
   19.3126  -34.3591    0.4929 O   0  0  0  0  0  0  0  0  0  0  0  0
   20.4996  -36.1313   -0.3426 O   0  0  0  0  0  0  0  0  0  0  0  0
   21.6380  -35.3284    0.0199 C   0  0  0  0  0  0  0  0  0  0  0  0
   23.0012  -36.0481   -0.2896 C   0  0  1  0  0  0  0  0  0  0  0  0
   24.1613  -35.0898    0.0694 C   0  0  0  0  0  0  0  0  0  0  0  0
   25.5108  -35.7766   -0.2513 C   0  0  0  0  0  0  0  0  0  0  0  0
   26.6822  -34.8499    0.1250 C   0  0  0  0  0  0  0  0  0  0  0  0
   28.0153  -35.5599   -0.1848 C   0  0  0  0  0  0  0  0  0  0  0  0
    9.4824  -33.6980   -0.5341 C   0  0  0  0  0  0  0  0  0  0  0  0
    8.4361  -32.5876   -0.2555 C   0  0  0  0  0  0  0  0  0  0  0  0
   23.1927  -37.3590    0.5468 C   0  0  0  0  0  0  0  0  0  0  0  0
   22.1620  -38.4562    0.2068 C   0  0  0  0  0  0  0  0  0  0  0  0
    3.4257  -36.1352   -0.0553 H   0  0  0  0  0  0  0  0  0  0  0  0
    4.1059  -34.6607   -0.2253 H   0  0  0  0  0  0  0  0  0  0  0  0
    4.1347  -35.4108    1.2247 H   0  0  0  0  0  0  0  0  0  0  0  0
    5.5969  -37.0922    0.3261 H   0  0  0  0  0  0  0  0  0  0  0  0
    5.5681  -36.3419   -1.1244 H   0  0  0  0  0  0  0  0  0  0  0  0
    6.5836  -34.4038   -0.1294 H   0  0  0  0  0  0  0  0  0  0  0  0
    6.6372  -35.1788    1.3073 H   0  0  0  0  0  0  0  0  0  0  0  0
    8.1329  -36.7966    0.3983 H   0  0  0  0  0  0  0  0  0  0  0  0
    8.0514  -36.0685   -1.0615 H   0  0  0  0  0  0  0  0  0  0  0  0
    9.2149  -34.7947    1.2560 H   0  0  0  0  0  0  0  0  0  0  0  0
   10.5725  -36.7285    0.5026 H   0  0  0  0  0  0  0  0  0  0  0  0
   10.6046  -36.1011   -1.0050 H   0  0  0  0  0  0  0  0  0  0  0  0
   14.3054  -34.2441   -0.1971 H   0  0  0  0  0  0  0  0  0  0  0  0
   14.3422  -34.9406    1.2798 H   0  0  0  0  0  0  0  0  0  0  0  0
   15.4188  -36.8725    0.3464 H   0  0  0  0  0  0  0  0  0  0  0  0
   15.3728  -36.1859   -1.1349 H   0  0  0  0  0  0  0  0  0  0  0  0
   16.8149  -34.4176   -0.3576 H   0  0  0  0  0  0  0  0  0  0  0  0
   16.8646  -35.1099    1.1208 H   0  0  0  0  0  0  0  0  0  0  0  0
   17.9454  -37.0389    0.1771 H   0  0  0  0  0  0  0  0  0  0  0  0
   17.9040  -36.3376   -1.2974 H   0  0  0  0  0  0  0  0  0  0  0  0
   21.6034  -34.4714   -0.4943 H   0  0  0  0  0  0  0  0  0  0  0  0
   21.5937  -35.1320    0.9994 H   0  0  0  0  0  0  0  0  0  0  0  0
   22.9959  -36.2904   -1.2598 H   0  0  0  0  0  0  0  0  0  0  0  0
   24.0785  -34.2498   -0.4669 H   0  0  0  0  0  0  0  0  0  0  0  0
   24.1225  -34.8689    1.0439 H   0  0  0  0  0  0  0  0  0  0  0  0
   25.5812  -36.6264    0.2711 H   0  0  0  0  0  0  0  0  0  0  0  0
   25.5529  -35.9814   -1.2292 H   0  0  0  0  0  0  0  0  0  0  0  0
   26.6231  -34.0047   -0.4063 H   0  0  0  0  0  0  0  0  0  0  0  0
   26.6375  -34.6348    1.1005 H   0  0  0  0  0  0  0  0  0  0  0  0
   28.7774  -34.9601    0.0587 H   0  0  0  0  0  0  0  0  0  0  0  0
   28.0599  -35.7754   -1.1603 H   0  0  0  0  0  0  0  0  0  0  0  0
   28.0743  -36.4053    0.3461 H   0  0  0  0  0  0  0  0  0  0  0  0
   10.3864  -33.3210   -0.3324 H   0  0  0  0  0  0  0  0  0  0  0  0
    9.4270  -33.9309   -1.5050 H   0  0  0  0  0  0  0  0  0  0  0  0
    8.6321  -31.7926   -0.8295 H   0  0  0  0  0  0  0  0  0  0  0  0
    8.4798  -32.3218    0.7075 H   0  0  0  0  0  0  0  0  0  0  0  0
    7.5207  -32.9316   -0.4647 H   0  0  0  0  0  0  0  0  0  0  0  0
   24.1088  -37.7180    0.3686 H   0  0  0  0  0  0  0  0  0  0  0  0
   23.1060  -37.1319    1.5168 H   0  0  0  0  0  0  0  0  0  0  0  0
   22.3357  -39.2635    0.7706 H   0  0  0  0  0  0  0  0  0  0  0  0
   22.2421  -38.7014   -0.7594 H   0  0  0  0  0  0  0  0  0  0  0  0
   21.2396  -38.1155    0.3885 H   0  0  0  0  0  0  0  0  0  0  0  0
  1  2  1  0  0  0  0
  2  3  1  0  0  0  0
  3  4  1  0  0  0  0
  4  5  1  0  0  0  0
  5  6  1  0  0  0  0
  6  7  1  0  0  0  0
  7  8  1  0  0  0  0
  8  9  2  0  0  0  0
  8 10  1  0  0  0  0
 10 11  1  0  0  0  0
 11 12  1  0  0  0  0
 12 13  1  0  0  0  0
 13 14  1  0  0  0  0
 14 15  2  0  0  0  0
 14 16  1  0  0  0  0
 16 17  1  0  0  0  0
 17 18  1  0  0  0  0
 18 19  1  0  0  0  0
 19 20  1  0  0  0  0
 20 21  1  0  0  0  0
 21 22  1  0  0  0  0
  5 23  1  0  0  0  0
 23 24  1  0  0  0  0
 18 25  1  0  0  0  0
 25 26  1  0  0  0  0
  1 27  1  0  0  0  0
  1 28  1  0  0  0  0
  1 29  1  0  0  0  0
  2 30  1  0  0  0  0
  2 31  1  0  0  0  0
  3 32  1  0  0  0  0
  3 33  1  0  0  0  0
  4 34  1  0  0  0  0
  4 35  1  0  0  0  0
  5 36  1  0  0  0  0
  6 37  1  0  0  0  0
  6 38  1  0  0  0  0
 10 39  1  0  0  0  0
 10 40  1  0  0  0  0
 11 41  1  0  0  0  0
 11 42  1  0  0  0  0
 12 43  1  0  0  0  0
 12 44  1  0  0  0  0
 13 45  1  0  0  0  0
 13 46  1  0  0  0  0
 17 47  1  0  0  0  0
 17 48  1  0  0  0  0
 18 49  1  0  0  0  0
 19 50  1  0  0  0  0
 19 51  1  0  0  0  0
 20 52  1  0  0  0  0
 20 53  1  0  0  0  0
 21 54  1  0  0  0  0
 21 55  1  0  0  0  0
 22 56  1  0  0  0  0
 22 57  1  0  0  0  0
 22 58  1  0  0  0  0
 23 59  1  0  0  0  0
 23 60  1  0  0  0  0
 24 61  1  0  0  0  0
 24 62  1  0  0  0  0
 24 63  1  0  0  0  0
 25 64  1  0  0  0  0
 25 65  1  0  0  0  0
 26 66  1  0  0  0  0
 26 67  1  0  0  0  0
 26 68  1  0  0  0  0
M  END
>  <Substance ID> (52)
52

>  <Mouse_Female_Canc> (52)
3

>  <SAL> (52)
1

>  <Rat_Male_Canc> (52)
1

>  <TD50_Rat> (52)
NP

>  <TD50_Mouse> (52)
3880

>  <Rat_Female_Canc> (52)
1

>  <Canc> (52)
3

>  <MolWeight> (52)
370.57

>  <Mouse_Male_Canc> (52)
3

>  <Mouse_Male_NTP> (52)
ND

>  <ChemName> (52)
Di-(2-Ethylhexyl) Adipate

>  <Rat_Male_NTP> (52)
ND

>  <Reference> (52)
NTP212

>  <Formula> (52)
C22H42O4

>  <SMILES> (52)
CCC(COC(=O)CCCCC(=O)OCC(CCCC)CC)CCCC

>  <Rat_Female_NTP> (52)
ND

>  <CAS> (52)
103-23-1

>  <Mouse_Female_NTP> (52)
ND

>  <Synonyms> (52)
Adipic acid bis (2-ethylhexyl) ester; adipol 2EH; sicol 250; staflex doa; truflex doa; uniflex doa; vestinol oa; wickenol 158; witamol 320; BEHA; Bis(2-ethylhexyl) adipate; Bis(2-ethylhexyl) hexanedioate; Dioctyl Adipate; bisoflex doa; DEHA; DOA; effemoll doa; effomoll doa; ergoplast addo; flexol a 26; flexol plasticizer 10-a; flexol plasticizer a-26; Hexanedioic acid bis(2-ethylhexyl) ester; kemester 5652; kodaflex doa; mollan s; monoplex doa; Octyl Adipate; plastomoll doa; PX-238; reomol doa; rucoflex plasticizer doa.

$$$$
53


 66 66  0  0  0  0  0  0  0  0999 V2000
   -3.8075   -0.7141    0.1005 C   0  0  0  0  0  0  0  0  0  1  0  0
   -3.8167    0.6305   -0.1009 C   0  0  0  0  0  0  0  0  0  2  0  0
   -2.5369   -1.4661    0.3291 C   0  0  0  0  0  0  0  0  0  3  0  0
   -2.5569    1.3990   -0.3310 C   0  0  0  0  0  0  0  0  0  4  0  0
   -2.4631    2.8048   -0.1071 O   0  0  0  0  0  0  0  0  0  5  0  0
   -2.4246   -2.8700    0.1040 O   0  0  0  0  0  0  0  0  0  6  0  0
   -1.5807   -0.8719    0.8193 O   0  0  0  0  0  0  0  0  0  7  0  0
   -1.5933    0.8171   -0.8213 O   0  0  0  0  0  0  0  0  0  8  0  0
   -1.0879   -3.4287    0.5080 C   0  0  0  0  0  0  0  0  0  9  0  0
   -1.1336    3.3811   -0.5112 C   0  0  0  0  0  0  0  0  0 10  0  0
   -5.0765   -1.4382    0.1668 C   0  0  0  0  0  0  0  0  0 11  0  0
   -5.0952    1.3377   -0.1660 C   0  0  0  0  0  0  0  0  0 12  0  0
    0.1781   -3.2748   -0.4861 C   0  0  1  0  0  0  0  0  0 13  0  0
    0.1330    3.2431    0.4844 C   0  0  1  0  0  0  0  0  0 14  0  0
    0.4691    1.7087    0.7654 C   0  0  0  0  0  0  0  0  0 15  0  0
    0.4959   -1.7360   -0.7669 C   0  0  0  0  0  0  0  0  0 16  0  0
    1.3255    3.9853   -0.2767 C   0  0  0  0  0  0  0  0  0 17  0  0
    1.3779   -4.0024    0.2772 C   0  0  0  0  0  0  0  0  0 18  0  0
    3.8037    4.5074   -0.4619 C   0  0  0  0  0  0  0  0  0 19  0  0
    3.8610   -4.4976    0.4658 C   0  0  0  0  0  0  0  0  0 20  0  0
    2.6846    4.0265    0.4709 C   0  0  0  0  0  0  0  0  0 21  0  0
    2.7377   -4.0324   -0.4698 C   0  0  0  0  0  0  0  0  0 22  0  0
   -6.2421    0.6698   -0.0757 C   0  0  0  0  0  0  0  0  0 23  0  0
   -6.2323   -0.7857    0.0775 C   0  0  0  0  0  0  0  0  0 24  0  0
    1.5596   -1.3612   -1.8289 C   0  0  0  0  0  0  0  0  0 25  0  0
    1.5304    1.3472    1.8339 C   0  0  0  0  0  0  0  0  0 26  0  0
    5.2153   -4.2609   -0.2333 C   0  0  0  0  0  0  0  0  0 27  0  0
    5.1600    4.2774    0.2355 C   0  0  0  0  0  0  0  0  0 28  0  0
   -0.8365   -2.9855    1.3684 H   0  0  0  0  0  0  0  0  0  0  0  0
   -1.2178   -4.4081    0.6625 H   0  0  0  0  0  0  0  0  0  0  0  0
   -0.8759    2.9411   -1.3714 H   0  0  0  0  0  0  0  0  0  0  0  0
   -1.2760    4.3588   -0.6659 H   0  0  0  0  0  0  0  0  0  0  0  0
   -5.0753   -2.4318    0.2802 H   0  0  0  0  0  0  0  0  0  0  0  0
   -5.1074    2.3311   -0.2793 H   0  0  0  0  0  0  0  0  0  0  0  0
    0.0140   -3.6803   -1.3854 H   0  0  0  0  0  0  0  0  0  0  0  0
   -0.0374    3.6470    1.3832 H   0  0  0  0  0  0  0  0  0  0  0  0
   -0.3852    1.2694    1.0430 H   0  0  0  0  0  0  0  0  0  0  0  0
    0.7809    1.3156   -0.0996 H   0  0  0  0  0  0  0  0  0  0  0  0
   -0.3624   -1.3084   -1.0508 H   0  0  0  0  0  0  0  0  0  0  0  0
    0.7966   -1.3378    0.0997 H   0  0  0  0  0  0  0  0  0  0  0  0
    1.4698    3.5182   -1.1490 H   0  0  0  0  0  0  0  0  0  0  0  0
    1.0404    4.9287   -0.4462 H   0  0  0  0  0  0  0  0  0  0  0  0
    1.5173   -3.5311    1.1481 H   0  0  0  0  0  0  0  0  0  0  0  0
    1.1023   -4.9481    0.4497 H   0  0  0  0  0  0  0  0  0  0  0  0
    3.7735    3.9911   -1.3178 H   0  0  0  0  0  0  0  0  0  0  0  0
    3.6854    5.4813   -0.6553 H   0  0  0  0  0  0  0  0  0  0  0  0
    3.8267   -3.9760    1.3183 H   0  0  0  0  0  0  0  0  0  0  0  0
    3.7511   -5.4713    0.6656 H   0  0  0  0  0  0  0  0  0  0  0  0
    2.9050    3.1089    0.8016 H   0  0  0  0  0  0  0  0  0  0  0  0
    2.6131    4.6528    1.2472 H   0  0  0  0  0  0  0  0  0  0  0  0
    2.9486   -3.1138   -0.8041 H   0  0  0  0  0  0  0  0  0  0  0  0
    2.6731   -4.6626   -1.2435 H   0  0  0  0  0  0  0  0  0  0  0  0
   -7.1115    1.1625   -0.1126 H   0  0  0  0  0  0  0  0  0  0  0  0
   -7.0950   -1.2899    0.1151 H   0  0  0  0  0  0  0  0  0  0  0  0
    1.6399   -0.3660   -1.8843 H   0  0  0  0  0  0  0  0  0  0  0  0
    1.2841   -1.7230   -2.7195 H   0  0  0  0  0  0  0  0  0  0  0  0
    2.4426   -1.7524   -1.5693 H   0  0  0  0  0  0  0  0  0  0  0  0
    1.6236    0.3531    1.8888 H   0  0  0  0  0  0  0  0  0  0  0  0
    1.2440    1.7043    2.7230 H   0  0  0  0  0  0  0  0  0  0  0  0
    2.4098    1.7504    1.5807 H   0  0  0  0  0  0  0  0  0  0  0  0
    5.9574   -4.5602    0.3664 H   0  0  0  0  0  0  0  0  0  0  0  0
    5.3217   -3.2870   -0.4338 H   0  0  0  0  0  0  0  0  0  0  0  0
    5.2461   -4.7818   -1.0864 H   0  0  0  0  0  0  0  0  0  0  0  0
    5.8995    4.5869   -0.3623 H   0  0  0  0  0  0  0  0  0  0  0  0
    5.2746    3.3031    0.4297 H   0  0  0  0  0  0  0  0  0  0  0  0
    5.1866    4.7930    1.0920 H   0  0  0  0  0  0  0  0  0  0  0  0
  2  1  2  0  0  0  0
  3  1  1  0  0  0  0
  4  2  1  0  0  0  0
  5  4  1  0  0  0  0
  6  3  1  0  0  0  0
  7  3  2  0  0  0  0
  8  4  2  0  0  0  0
  9  6  1  0  0  0  0
 10  5  1  0  0  0  0
 11  1  1  0  0  0  0
 12  2  1  0  0  0  0
 13  9  1  0  0  0  0
 14 10  1  0  0  0  0
 15 14  1  0  0  0  0
 16 13  1  0  0  0  0
 17 14  1  0  0  0  0
 18 13  1  0  0  0  0
 19 21  1  0  0  0  0
 20 22  1  0  0  0  0
 21 17  1  0  0  0  0
 22 18  1  0  0  0  0
 23 24  1  0  0  0  0
 24 11  2  0  0  0  0
 25 16  1  0  0  0  0
 26 15  1  0  0  0  0
 27 20  1  0  0  0  0
 28 19  1  0  0  0  0
 23 12  2  0  0  0  0
  9 29  1  0  0  0  0
  9 30  1  0  0  0  0
 10 31  1  0  0  0  0
 10 32  1  0  0  0  0
 11 33  1  0  0  0  0
 12 34  1  0  0  0  0
 13 35  1  0  0  0  0
 14 36  1  0  0  0  0
 15 37  1  0  0  0  0
 15 38  1  0  0  0  0
 16 39  1  0  0  0  0
 16 40  1  0  0  0  0
 17 41  1  0  0  0  0
 17 42  1  0  0  0  0
 18 43  1  0  0  0  0
 18 44  1  0  0  0  0
 19 45  1  0  0  0  0
 19 46  1  0  0  0  0
 20 47  1  0  0  0  0
 20 48  1  0  0  0  0
 21 49  1  0  0  0  0
 21 50  1  0  0  0  0
 22 51  1  0  0  0  0
 22 52  1  0  0  0  0
 23 53  1  0  0  0  0
 24 54  1  0  0  0  0
 25 55  1  0  0  0  0
 25 56  1  0  0  0  0
 25 57  1  0  0  0  0
 26 58  1  0  0  0  0
 26 59  1  0  0  0  0
 26 60  1  0  0  0  0
 27 61  1  0  0  0  0
 27 62  1  0  0  0  0
 27 63  1  0  0  0  0
 28 64  1  0  0  0  0
 28 65  1  0  0  0  0
 28 66  1  0  0  0  0
M  END
>  <Substance ID> (53)
53

>  <Mouse_Female_Canc> (53)
3

>  <SAL> (53)
1

>  <Rat_Male_Canc> (53)
3

>  <TD50_Rat> (53)
625

>  <TD50_Mouse> (53)
894

>  <Rat_Female_Canc> (53)
3

>  <Canc> (53)
3

>  <MolWeight> (53)
390.56

>  <Mouse_Male_Canc> (53)
3

>  <Mouse_Male_NTP> (53)
ND

>  <ChemName> (53)
bis(2-Ethylhexyl) Phthlate 

>  <Rat_Male_NTP> (53)
ND

>  <Reference> (53)
NTP217

>  <Formula> (53)
C24H38O4

>  <SMILES> (53)
O=C(C1=C(C=CC=C1)C(=O)OCC(CCCC)CC)OCC(CCCC)CC

>  <Rat_Female_NTP> (53)
ND

>  <CAS> (53)
117-81-7

>  <Mouse_Female_NTP> (53)
ND

>  <Synonyms> (53)
1,2-Benzenedicarboxylic acid bis(2-ethylhexyl) ester; 2-Ethylhexyl phthalate; BEHP; Benzenedicarboxylic acid, bis(2-ethylhexyl) ester; bis (2-Etheylexyl) Phthalate; bis-(2-ethylhexyl) 1,2-benzenedicarboxylate; bis(2-Ethylhexyl) phthalate; Bis (2-Ethylhexyl) Phthalate (Dioctyl phthalate); Dioctyl Phthalate; bisoflex 81; bisoflex dop; di-sec-octyl phthalate; compound 889; DAF 68; DEHP; DOP; ergoplast fdo; Ethyl hexyl phthalate; eviplast 80; eviplast 81; fleximel; flexol dop; flexol plasticizer dop; good-rite gp 264; hatcol dop; hercoflex 260; kodaflex dop; mollan o; nuoplaz dop; Octoil; octyl phthalate; palatinol ah; phthalic acid dioctyl ester; pittsburgh px-138; platinol ah; platinol dop; rc plasticizer dop; reomol d 79p; reomol dop; sicol 150; staflex dop; truflex dop; Union carbide flexol 380; vestinol ah; vinicizer 80; witcizer 312.

$$$$
54


 30 32  0  0  0  0  0  0  0  0999 V2000
   11.2915  -56.1990   -0.2890 C   0  0  0  0  0  0  0  0  0  0  0  0
    9.8256  -56.2887   -0.6540 C   0  0  1  0  0  0  0  0  0  0  0  0
   10.6235  -57.4721   -0.3624 O   0  0  0  0  0  0  0  0  0  0  0  0
   11.5254  -61.3465    0.3428 C   0  0  0  0  0  0  0  0  0  0  0  0
    5.7426  -59.9134   -0.2624 C   0  0  0  0  0  0  0  0  0  0  0  0
    7.0420  -59.8238    0.0124 C   0  0  0  0  0  0  0  0  0  0  0  0
    6.9280  -57.3894    0.1234 C   0  0  0  0  0  0  0  0  0  0  0  0
    5.4964  -57.4935   -0.1798 C   0  0  0  0  0  0  0  0  0  0  0  0
    7.6478  -58.5076    0.2196 C   0  0  0  0  0  0  0  0  0  0  0  0
    4.9326  -58.6894   -0.3596 C   0  0  0  0  0  0  0  0  0  0  0  0
    7.5107  -56.0987    0.3246 O   0  0  0  0  0  0  0  0  0  0  0  0
    7.8397  -60.9772    0.1070 O   0  0  0  0  0  0  0  0  0  0  0  0
    9.1931  -60.5706    0.3995 C   0  0  0  0  0  0  0  0  0  0  0  0
   10.1147  -61.7771    0.6092 C   0  0  2  0  0  0  0  0  0  0  0  0
   10.7388  -62.0808   -0.6511 O   0  0  0  0  0  0  0  0  0  0  0  0
    8.9427  -56.1054    0.6208 C   0  0  0  0  0  0  0  0  0  0  0  0
   11.9668  -55.9456   -0.9816 H   0  0  0  0  0  0  0  0  0  0  0  0
   11.5664  -55.8265    0.5974 H   0  0  0  0  0  0  0  0  0  0  0  0
    9.2662  -55.9148   -1.3938 H   0  0  0  0  0  0  0  0  0  0  0  0
   11.7400  -60.3799    0.2025 H   0  0  0  0  0  0  0  0  0  0  0  0
   12.2866  -61.7925    0.8135 H   0  0  0  0  0  0  0  0  0  0  0  0
    5.3192  -60.8085   -0.4021 H   0  0  0  0  0  0  0  0  0  0  0  0
    4.9410  -56.6651   -0.2521 H   0  0  0  0  0  0  0  0  0  0  0  0
    8.6218  -58.4457    0.4378 H   0  0  0  0  0  0  0  0  0  0  0  0
    3.9553  -58.7538   -0.5613 H   0  0  0  0  0  0  0  0  0  0  0  0
    9.5402  -60.0267   -0.3645 H   0  0  0  0  0  0  0  0  0  0  0  0
    9.1919  -60.0153    1.2312 H   0  0  0  0  0  0  0  0  0  0  0  0
    9.6492  -62.2967    1.3257 H   0  0  0  0  0  0  0  0  0  0  0  0
    9.1832  -55.2363    1.0531 H   0  0  0  0  0  0  0  0  0  0  0  0
    9.1344  -56.8567    1.2523 H   0  0  0  0  0  0  0  0  0  0  0  0
  2  1  1  0  0  0  0
  3  2  1  0  0  0  0
  1  3  1  0  0  0  0
  5  6  2  0  0  0  0
  7  8  1  0  0  0  0
  5 10  1  0  0  0  0
  6  9  1  0  0  0  0
  9  7  2  0  0  0  0
  8 10  2  0  0  0  0
  7 11  1  0  0  0  0
  6 12  1  0  0  0  0
 12 13  1  0  0  0  0
 13 14  1  0  0  0  0
 14 15  1  0  0  0  0
 14  4  1  0  0  0  0
  4 15  1  0  0  0  0
 11 16  1  0  0  0  0
 16  2  1  0  0  0  0
  1 17  1  0  0  0  0
  1 18  1  0  0  0  0
  2 19  1  0  0  0  0
  4 20  1  0  0  0  0
  4 21  1  0  0  0  0
  5 22  1  0  0  0  0
  8 23  1  0  0  0  0
  9 24  1  0  0  0  0
 10 25  1  0  0  0  0
 13 26  1  0  0  0  0
 13 27  1  0  0  0  0
 14 28  1  0  0  0  0
 16 29  1  0  0  0  0
 16 30  1  0  0  0  0
M  END
>  <Substance ID> (54)
54

>  <Mouse_Female_Canc> (54)
3

>  <SAL> (54)
3

>  <Rat_Male_Canc> (54)
3

>  <TD50_Rat> (54)
3.78

>  <TD50_Mouse> (54)
24.3

>  <Rat_Female_Canc> (54)
3

>  <Canc> (54)
3

>  <MolWeight> (54)
222.24

>  <Mouse_Male_Canc> (54)
3

>  <Mouse_Male_NTP> (54)
ND

>  <ChemName> (54)
Diglycidyl Resorcinol Ether

>  <Rat_Male_NTP> (54)
ND

>  <Reference> (54)
NTP257

>  <Formula> (54)
C12H14O4

>  <SMILES> (54)
C1=C(C=CC=C1OCC2CO2)OCC3CO3

>  <Rat_Female_NTP> (54)
ND

>  <CAS> (54)
101-90-6

>  <Mouse_Female_NTP> (54)
ND

>  <Synonyms> (54)
1,3-Bis(2,3-epoxypropoxy)benzene; 1,3-diglycidyloxybenzene; 2,2'-[1,3-phenylenebis(oxymethylene)]bisoxirane; m-bis(2,3-epoxypropoxy)benzene; meta-bis(glycidyloxy)benzene; araldite ere 1359; diglycidyl ether of resorcinol; diglycidylresorcinol; DGRE; ere 1359; RDGE; resorcinol bis(2,3-epoxypropyl)ether; Resorcinol diglycidyl ether; resorcinyl diglycidyl ether.

$$$$
55


 15 14  0  0  0  0  0  0  0  0999 V2000
    7.5085  -67.1407   -0.3400 C   0  0  0  0  0  0  0  0  0  0  0  0
    8.7201  -66.4178    0.0427 C   0  0  0  0  0  0  0  0  0  0  0  0
    8.6334  -65.3630    0.6816 O   0  0  0  0  0  0  0  0  0  0  0  0
    9.9692  -66.9177   -0.3138 O   0  0  0  0  0  0  0  0  0  0  0  0
   10.9921  -66.0421    0.1675 C   0  0  0  0  0  0  0  0  0  0  0  0
    6.3138  -66.6606   -0.0021 C   0  0  0  0  0  0  0  0  0  0  0  0
   12.3702  -66.5932   -0.2366 C   0  0  0  0  0  0  0  0  0  0  0  0
    7.5771  -67.9950   -0.8552 H   0  0  0  0  0  0  0  0  0  0  0  0
   10.8670  -65.1331   -0.2301 H   0  0  0  0  0  0  0  0  0  0  0  0
   10.9367  -65.9810    1.1641 H   0  0  0  0  0  0  0  0  0  0  0  0
    5.4844  -67.1544   -0.2634 H   0  0  0  0  0  0  0  0  0  0  0  0
    6.2456  -65.8063    0.5131 H   0  0  0  0  0  0  0  0  0  0  0  0
   13.0861  -65.9814    0.0997 H   0  0  0  0  0  0  0  0  0  0  0  0
   12.4260  -66.6547   -1.2331 H   0  0  0  0  0  0  0  0  0  0  0  0
   12.4957  -67.5024    0.1607 H   0  0  0  0  0  0  0  0  0  0  0  0
  1  2  1  0  0  0  0
  2  3  2  0  0  0  0
  2  4  1  0  0  0  0
  4  5  1  0  0  0  0
  1  6  2  0  0  0  0
  5  7  1  0  0  0  0
  1  8  1  0  0  0  0
  5  9  1  0  0  0  0
  5 10  1  0  0  0  0
  6 11  1  0  0  0  0
  6 12  1  0  0  0  0
  7 13  1  0  0  0  0
  7 14  1  0  0  0  0
  7 15  1  0  0  0  0
M  END
>  <Substance ID> (55)
55

>  <Mouse_Female_Canc> (55)
3

>  <SAL> (55)
1

>  <Rat_Male_Canc> (55)
3

>  <TD50_Rat> (55)
119

>  <TD50_Mouse> (55)
324

>  <Rat_Female_Canc> (55)
3

>  <Canc> (55)
3

>  <MolWeight> (55)
100.12

>  <Mouse_Male_Canc> (55)
3

>  <Mouse_Male_NTP> (55)
ND

>  <ChemName> (55)
Ethyl Acrylate

>  <Rat_Male_NTP> (55)
ND

>  <Reference> (55)
NTP259

>  <Formula> (55)
C5H8O2

>  <SMILES> (55)
O=C(OCC)C=C

>  <Rat_Female_NTP> (55)
ND

>  <CAS> (55)
140-88-5

>  <Mouse_Female_NTP> (55)
ND

>  <Synonyms> (55)
2-Propenoic Acid Ethyl Ester; Acrylic Acid Ethyl Ester; Ethoxycarbonylethylene; Ethyl 2-Propenoate; Ethyl Propenoate.

$$$$
56


 35 35  0  0  0  0  0  0  0  0999 V2000
    9.8194  -77.4513    0.1375 C   0  0  0  0  0  0  0  0  0  0  0  0
   10.8455  -76.5393    0.0865 O   0  0  0  0  0  0  0  0  0  0  0  0
    8.3826  -76.8701   -0.0988 C   0  0  0  0  0  0  0  0  0  0  0  0
    6.0514  -80.0855   -0.0929 C   0  0  0  0  0  0  0  0  0  0  0  0
    6.1390  -81.4138   -0.0430 C   0  0  0  0  0  0  0  0  0  0  0  0
    8.5576  -81.3355   -0.0146 C   0  0  0  0  0  0  0  0  0  0  0  0
    8.4222  -79.9683   -0.0747 C   0  0  0  0  0  0  0  0  0  0  0  0
    7.4614  -82.0719    0.0034 C   0  0  0  0  0  0  0  0  0  0  0  0
    7.2710  -79.3058   -0.1034 C   0  0  0  0  0  0  0  0  0  0  0  0
    7.5541  -83.4338    0.0678 N   0  0  0  0  0  0  0  0  0  0  0  0
    7.1864  -77.8360   -0.1281 N   0  0  0  0  0  0  0  0  0  0  0  0
    5.8230  -77.2799   -0.1813 C   0  0  0  0  0  0  0  0  0  0  0  0
    5.6747  -75.8645    0.4614 C   0  0  0  0  0  0  0  0  0  0  0  0
    6.3961  -74.8565   -0.2562 O   0  0  0  0  0  0  0  0  0  0  0  0
    9.8670  -81.8726    0.0356 N   0  3  0  0  0  0  0  0  0  0  0  0
   10.0631  -83.1696    0.1040 O   0  5  0  0  0  0  0  0  0  0  0  0
   10.7992  -81.1491    0.0241 O   0  0  0  0  0  0  0  0  0  0  0  0
    6.3874  -84.2218    0.0726 C   0  0  0  0  0  0  0  0  0  0  0  0
    9.9894  -78.1447   -0.5626 H   0  0  0  0  0  0  0  0  0  0  0  0
    9.8330  -77.8791    1.0413 H   0  0  0  0  0  0  0  0  0  0  0  0
   11.7150  -77.0058    0.2486 H   0  0  0  0  0  0  0  0  0  0  0  0
    8.2091  -76.2102    0.6321 H   0  0  0  0  0  0  0  0  0  0  0  0
    8.3989  -76.3964   -0.9794 H   0  0  0  0  0  0  0  0  0  0  0  0
    5.1591  -79.6350   -0.1227 H   0  0  0  0  0  0  0  0  0  0  0  0
    5.3065  -81.9678   -0.0369 H   0  0  0  0  0  0  0  0  0  0  0  0
    9.2623  -79.4263   -0.0990 H   0  0  0  0  0  0  0  0  0  0  0  0
    8.4522  -83.8715    0.1116 H   0  0  0  0  0  0  0  0  0  0  0  0
    5.5488  -77.2173   -1.1409 H   0  0  0  0  0  0  0  0  0  0  0  0
    5.2111  -77.9072    0.3005 H   0  0  0  0  0  0  0  0  0  0  0  0
    4.7057  -75.6179    0.4730 H   0  0  0  0  0  0  0  0  0  0  0  0
    6.0213  -75.9004    1.3988 H   0  0  0  0  0  0  0  0  0  0  0  0
    6.2700  -73.9721    0.1930 H   0  0  0  0  0  0  0  0  0  0  0  0
    6.6377  -85.1886    0.1232 H   0  0  0  0  0  0  0  0  0  0  0  0
    5.8689  -84.0557   -0.7662 H   0  0  0  0  0  0  0  0  0  0  0  0
    5.8256  -83.9815    0.8643 H   0  0  0  0  0  0  0  0  0  0  0  0
 15 16  1  0  0  0  0
 15 17  2  0  0  0  0
  1  2  1  0  0  0  0
  3  1  1  0  0  0  0
  4  5  2  0  0  0  0
  6  7  1  0  0  0  0
  4  9  1  0  0  0  0
  5  8  1  0  0  0  0
  8  6  2  0  0  0  0
  7  9  2  0  0  0  0
  8 10  1  0  0  0  0
  9 11  1  0  0  0  0
 11  3  1  0  0  0  0
 11 12  1  0  0  0  0
 12 13  1  0  0  0  0
 13 14  1  0  0  0  0
 10 18  1  0  0  0  0
  6 15  1  0  0  0  0
  1 19  1  0  0  0  0
  1 20  1  0  0  0  0
  2 21  1  0  0  0  0
  3 22  1  0  0  0  0
  3 23  1  0  0  0  0
  4 24  1  0  0  0  0
  5 25  1  0  0  0  0
  7 26  1  0  0  0  0
 10 27  1  0  0  0  0
 12 28  1  0  0  0  0
 12 29  1  0  0  0  0
 13 30  1  0  0  0  0
 13 31  1  0  0  0  0
 14 32  1  0  0  0  0
 18 33  1  0  0  0  0
 18 34  1  0  0  0  0
 18 35  1  0  0  0  0
M  END
>  <Substance ID> (56)
56

>  <Mouse_Female_Canc> (56)
3

>  <SAL> (56)
3

>  <Rat_Male_Canc> (56)
2

>  <TD50_Rat> (56)
702

>  <TD50_Mouse> (56)
86.3

>  <Rat_Female_Canc> (56)
3

>  <Canc> (56)
3

>  <MolWeight> (56)
255.27

>  <Mouse_Male_Canc> (56)
3

>  <Mouse_Male_NTP> (56)
CE

>  <ChemName> (56)
HC Blue no. 1

>  <Rat_Male_NTP> (56)
EE

>  <Reference> (56)
NTP271

>  <Formula> (56)
C11H17N3O4

>  <SMILES> (56)
C1(=C(C=CC(=C1)N(CCO)CCO)NC)[N+]([O-])=O

>  <Rat_Female_NTP> (56)
SE

>  <CAS> (56)
2784-94-3

>  <Mouse_Female_NTP> (56)
CE

>  <Synonyms> (56)
1-Methylamino-2-nitro-4-(bis-2-hydroxyethyl)aminobenzene; 2,2'-((4-(methylamino)-3-nitrophenyl)imino)bisethanol; HC Blue 1; N1,N1-Bis(2-hydroxyethyl)-N4-methyl-3-nitro-p-phenylenediamine; N4,N4-bis(2-hydroxyethyl)-N1-methyl-2-nitro-p-phenylenediamine; N',N'-bis(2-hydroxyethyl)-N-methyl-2-nitro-p-phenylenediamine; N,N-Bis(2-hydroxyethyl)-N'-methyl-3-nitro-p-phenylenediamine.

$$$$
57


 22 24  0  0  0  0  0  0  0  0999 V2000
    9.9035  -89.2729   -0.0003 C   0  0  0  0  0  0  0  0  0  0  0  0
   11.1965  -88.5662   -0.0010 C   0  0  0  0  0  0  0  0  0  0  0  0
   12.3387  -89.2503   -0.0008 C   0  0  0  0  0  0  0  0  0  0  0  0
   12.3165  -90.7029   -0.0001 C   0  0  0  0  0  0  0  0  0  0  0  0
   11.1544  -91.3468   -0.0005 C   0  0  0  0  0  0  0  0  0  0  0  0
   11.2343  -86.8380    0.0002 Cl  0  0  0  0  0  0  0  0  0  0  0  0
   13.8516  -88.4112   -0.0002 Cl  0  0  0  0  0  0  0  0  0  0  0  0
   13.7978  -91.5935    0.0008 Cl  0  0  0  0  0  0  0  0  0  0  0  0
    8.7294  -88.5101    0.0015 O   0  0  0  0  0  0  0  0  0  0  0  0
    5.1087  -89.2001   -0.0012 C   0  0  0  0  0  0  0  0  0  0  0  0
    5.1121  -90.6521   -0.0002 C   0  0  0  0  0  0  0  0  0  0  0  0
    6.2659  -91.3121    0.0000 C   0  0  0  0  0  0  0  0  0  0  0  0
    7.5419  -90.5910   -0.0003 C   0  0  0  0  0  0  0  0  0  0  0  0
    7.5452  -89.2561   -0.0001 C   0  0  0  0  0  0  0  0  0  0  0  0
    6.2616  -88.5319   -0.0003 C   0  0  0  0  0  0  0  0  0  0  0  0
    6.2475  -86.8023    0.0008 Cl  0  0  0  0  0  0  0  0  0  0  0  0
    3.6097  -88.3400   -0.0004 Cl  0  0  0  0  0  0  0  0  0  0  0  0
    3.6189  -91.5226    0.0001 Cl  0  0  0  0  0  0  0  0  0  0  0  0
    8.7096  -91.3439   -0.0005 O   0  0  0  0  0  0  0  0  0  0  0  0
    9.8881  -90.6078   -0.0001 C   0  0  0  0  0  0  0  0  0  0  0  0
   11.1433  -92.3467   -0.0011 H   0  0  0  0  0  0  0  0  0  0  0  0
    6.2633  -92.3121    0.0004 H   0  0  0  0  0  0  0  0  0  0  0  0
  5 20  1  0  0  0  0
 20  1  2  0  0  0  0
  1  2  1  0  0  0  0
  2  3  2  0  0  0  0
  3  4  1  0  0  0  0
  4  5  2  0  0  0  0
  2  6  1  0  0  0  0
  3  7  1  0  0  0  0
  4  8  1  0  0  0  0
  1  9  1  0  0  0  0
 19 13  1  0  0  0  0
 14  9  1  0  0  0  0
 10 15  2  0  0  0  0
 10 11  1  0  0  0  0
 11 12  2  0  0  0  0
 12 13  1  0  0  0  0
 13 14  2  0  0  0  0
 14 15  1  0  0  0  0
 15 16  1  0  0  0  0
 10 17  1  0  0  0  0
 11 18  1  0  0  0  0
 19 20  1  0  0  0  0
  5 21  1  0  0  0  0
 12 22  1  0  0  0  0
M  END
>  <Substance ID> (57)
57

>  <Mouse_Female_Canc> (57)
1

>  <SAL> (57)
ND

>  <Rat_Male_Canc> (57)
ND

>  <TD50_Rat> (57)
ND

>  <TD50_Mouse> (57)
NP

>  <Rat_Female_Canc> (57)
ND

>  <Canc> (57)
1

>  <MolWeight> (57)
390.87

>  <Mouse_Male_Canc> (57)
1

>  <Mouse_Male_NTP> (57)
ND

>  <ChemName> (57)
1,2,3,7,8,9-Hexachlorodibenzo-p-dioxin

>  <Rat_Male_NTP> (57)
ND

>  <Reference> (57)
NTP202

>  <Formula> (57)
C12H2Cl6O2 

>  <SMILES> (57)
Clc(c1c3Oc2c(c(Cl)c(c(Cl)c2)Cl)O1)c(c(Cl)c3)Cl

>  <Rat_Female_NTP> (57)
ND

>  <CAS> (57)
19408-74-3

>  <Mouse_Female_NTP> (57)
ND

>  <Synonyms> (57)
1,2,3,7,8,9-hcdd; 1,2,3,7,8,9-Hexachlorodibenzodioxin; HEXACHLOROBENZO-para-DIOXIN (MIXTURE); Hexachlorodibenzo-p-dioxin, Mixture; Hexachlorodibenzo-p-dioxin, mixture (HxCDD); HXCDD.

$$$$
58


 15 15  0  0  0  0  0  0  0  0999 V2000
   37.8977   -2.7854   -0.0000 C   0  0  0  0  0  0  0  0  0  0  0  0
   37.8863   -4.0561   -0.0001 N   0  0  0  0  0  0  0  0  0  0  0  0
   40.1961   -4.1387   -0.0000 N   0  0  0  0  0  0  0  0  0  0  0  0
   40.2084   -2.7423    0.0001 C   0  0  0  0  0  0  0  0  0  0  0  0
   39.0899   -4.7645   -0.0000 C   0  0  0  0  0  0  0  0  0  0  0  0
   39.1134   -2.0975    0.0001 N   0  0  0  0  0  0  0  0  0  0  0  0
   36.6948   -2.0765    0.0005 N   0  0  0  0  0  0  0  0  0  0  0  0
   41.4237   -2.0546   -0.0004 N   0  0  0  0  0  0  0  0  0  0  0  0
   39.0778   -6.1609    0.0004 N   0  0  0  0  0  0  0  0  0  0  0  0
   36.7037   -1.0765    0.0005 H   0  0  0  0  0  0  0  0  0  0  0  0
   35.8243   -2.5687    0.0007 H   0  0  0  0  0  0  0  0  0  0  0  0
   41.4324   -1.0547   -0.0003 H   0  0  0  0  0  0  0  0  0  0  0  0
   42.2854   -2.5620   -0.0008 H   0  0  0  0  0  0  0  0  0  0  0  0
   39.9395   -6.6683    0.0005 H   0  0  0  0  0  0  0  0  0  0  0  0
   38.2076   -6.6534    0.0007 H   0  0  0  0  0  0  0  0  0  0  0  0
  1  2  2  0  0  0  0
  3  4  1  0  0  0  0
  1  6  1  0  0  0  0
  2  5  1  0  0  0  0
  5  3  2  0  0  0  0
  4  6  2  0  0  0  0
  1  7  1  0  0  0  0
  4  8  1  0  0  0  0
  5  9  1  0  0  0  0
  7 10  1  0  0  0  0
  7 11  1  0  0  0  0
  8 12  1  0  0  0  0
  8 13  1  0  0  0  0
  9 14  1  0  0  0  0
  9 15  1  0  0  0  0
M  END
>  <Substance ID> (58)
58

>  <Mouse_Female_Canc> (58)
1

>  <SAL> (58)
1

>  <Rat_Male_Canc> (58)
3

>  <TD50_Rat> (58)
735

>  <TD50_Mouse> (58)
NP

>  <Rat_Female_Canc> (58)
1

>  <Canc> (58)
3

>  <MolWeight> (58)
126.12

>  <Mouse_Male_Canc> (58)
1

>  <Mouse_Male_NTP> (58)
ND

>  <ChemName> (58)
Melamine

>  <Rat_Male_NTP> (58)
ND

>  <Reference> (58)
NTP245

>  <Formula> (58)
C3H6N6

>  <SMILES> (58)
NC1=NC(=NC(=N1)N)N

>  <Rat_Female_NTP> (58)
ND

>  <CAS> (58)
108-78-1

>  <Mouse_Female_NTP> (58)
ND

>  <Synonyms> (58)
1,3,5-triazine-2,4,6(1H,3H,5H)triimine; 1,3,5-Triazine-2,4,6-triamine; 2,4,6-triamino-1,3,5-triazine; 2,4,6-triamino-s-triazine; 2,4,6-triamino sym-triazine; AERO; cyanuramide; cyanuric triamide; cyanurotriamide; cyanurotriamine; Cymel; hicophor pr; isomelamine; s-triaminotriazine; Sym Triaminotriazine; teoharn; theoharn; triaminotriazine; virset 656-4.

$$$$
59


 29 30  0  0  0  0  0  0  0  0999 V2000
   31.0538  -11.4079   -0.0186 C   0  0  0  0  0  0  0  0  0  0  0  0
   29.7401  -12.0671   -0.0452 C   0  0  0  0  0  0  0  0  0  0  0  0
   29.6558  -13.3957   -0.0214 C   0  0  0  0  0  0  0  0  0  0  0  0
   30.8581  -14.1969    0.0309 C   0  0  0  0  0  0  0  0  0  0  0  0
   32.0430  -13.6046    0.0537 C   0  0  0  0  0  0  0  0  0  0  0  0
   32.1712  -12.1333    0.0272 C   0  0  0  0  0  0  0  0  0  0  0  0
   33.5326  -11.3728    0.0455 C   0  0  0  0  0  0  0  0  0  0  0  0
   34.8828  -12.1465    0.0278 C   0  0  0  0  0  0  0  0  0  0  0  0
   34.9732  -13.4772    0.0475 C   0  0  0  0  0  0  0  0  0  0  0  0
   37.3698  -13.4454   -0.0204 C   0  0  0  0  0  0  0  0  0  0  0  0
   37.3040  -11.9842   -0.0424 C   0  0  0  0  0  0  0  0  0  0  0  0
   36.2510  -14.1548    0.0237 C   0  0  0  0  0  0  0  0  0  0  0  0
   36.1232  -11.3665   -0.0177 C   0  0  0  0  0  0  0  0  0  0  0  0
   38.5995  -14.0969   -0.0455 N   0  0  0  0  0  0  0  0  0  0  0  0
   28.4146  -14.0210   -0.0468 N   0  0  0  0  0  0  0  0  0  0  0  0
   31.1094  -10.4096   -0.0350 H   0  0  0  0  0  0  0  0  0  0  0  0
   28.9066  -11.5156   -0.0812 H   0  0  0  0  0  0  0  0  0  0  0  0
   30.7956  -15.1947    0.0497 H   0  0  0  0  0  0  0  0  0  0  0  0
   32.8694  -14.1664    0.0897 H   0  0  0  0  0  0  0  0  0  0  0  0
   33.5360  -10.7767   -0.7574 H   0  0  0  0  0  0  0  0  0  0  0  0
   33.5355  -10.8150    0.8755 H   0  0  0  0  0  0  0  0  0  0  0  0
   34.1347  -14.0212    0.0795 H   0  0  0  0  0  0  0  0  0  0  0  0
   38.1471  -11.4474   -0.0761 H   0  0  0  0  0  0  0  0  0  0  0  0
   36.2901  -15.1539    0.0405 H   0  0  0  0  0  0  0  0  0  0  0  0
   36.0833  -10.3673   -0.0302 H   0  0  0  0  0  0  0  0  0  0  0  0
   38.6364  -15.0961   -0.0302 H   0  0  0  0  0  0  0  0  0  0  0  0
   39.4461  -13.5658   -0.0788 H   0  0  0  0  0  0  0  0  0  0  0  0
   28.3570  -15.0192   -0.0288 H   0  0  0  0  0  0  0  0  0  0  0  0
   27.5791  -13.4726   -0.0832 H   0  0  0  0  0  0  0  0  0  0  0  0
  1  6  2  0  0  0  0
  1  2  1  0  0  0  0
  2  3  2  0  0  0  0
  3  4  1  0  0  0  0
  4  5  2  0  0  0  0
  5  6  1  0  0  0  0
  6  7  1  0  0  0  0
  7  8  1  0  0  0  0
  8  9  2  0  0  0  0
 10 11  1  0  0  0  0
  8 13  1  0  0  0  0
  9 12  1  0  0  0  0
 12 10  2  0  0  0  0
 11 13  2  0  0  0  0
 10 14  1  0  0  0  0
  3 15  1  0  0  0  0
  1 16  1  0  0  0  0
  2 17  1  0  0  0  0
  4 18  1  0  0  0  0
  5 19  1  0  0  0  0
  7 20  1  0  0  0  0
  7 21  1  0  0  0  0
  9 22  1  0  0  0  0
 11 23  1  0  0  0  0
 12 24  1  0  0  0  0
 13 25  1  0  0  0  0
 14 26  1  0  0  0  0
 14 27  1  0  0  0  0
 15 28  1  0  0  0  0
 15 29  1  0  0  0  0
M  END
>  <Substance ID> (59)
59

>  <Mouse_Female_Canc> (59)
3

>  <SAL> (59)
3

>  <Rat_Male_Canc> (59)
3

>  <TD50_Rat> (59)
20

>  <TD50_Mouse> (59)
32.4

>  <Rat_Female_Canc> (59)
3

>  <Canc> (59)
3

>  <MolWeight> (59)
198.27

>  <Mouse_Male_Canc> (59)
3

>  <Mouse_Male_NTP> (59)
ND

>  <ChemName> (59)
4,4'-Methylenedianiline Dihydrochloride

>  <Rat_Male_NTP> (59)
ND

>  <Reference> (59)
NTP248

>  <Formula> (59)
C13H142N2.2ClH

>  <SMILES> (59)
C(C1=CC=C(C=C1)N)C2=CC=C(C=C2)N

>  <Rat_Female_NTP> (59)
ND

>  <CAS> (59)
13552-44-8

>  <Mouse_Female_NTP> (59)
ND

>  <Synonyms> (59)
4,4'-methylenebisbenzenamine dihydrochloride.

$$$$
60


 24 24  0  0  0  0  0  0  0  0999 V2000
   41.7350  -19.7826    0.0024 C   0  0  0  0  0  0  0  0  0  0  0  0
   42.1578  -21.0477   -0.0149 C   0  0  0  0  0  0  0  0  0  0  0  0
   44.4673  -20.3647    0.0123 C   0  0  0  0  0  0  0  0  0  0  0  0
   44.0131  -18.9742    0.0285 C   0  0  0  0  0  0  0  0  0  0  0  0
   43.5799  -21.3538   -0.0087 C   0  0  0  0  0  0  0  0  0  0  0  0
   42.7110  -18.6982    0.0243 C   0  0  0  0  0  0  0  0  0  0  0  0
   40.3605  -19.4612   -0.0000 N   0  0  0  0  0  0  0  0  0  0  0  0
   39.3295  -20.4275   -0.0059 C   0  0  0  0  0  0  0  0  0  0  0  0
   39.5689  -21.6402   -0.0025 O   0  0  0  0  0  0  0  0  0  0  0  0
   38.0099  -20.0061   -0.0150 N   0  0  0  0  0  0  0  0  0  0  0  0
   46.1545  -20.7227    0.0217 Cl  0  0  0  0  0  0  0  0  0  0  0  0
   37.7030  -18.6054   -0.0057 C   0  0  0  0  0  0  0  0  0  0  0  0
   36.9545  -20.9749   -0.0350 C   0  0  0  0  0  0  0  0  0  0  0  0
   41.4908  -21.7926   -0.0324 H   0  0  0  0  0  0  0  0  0  0  0  0
   44.6815  -18.2305    0.0428 H   0  0  0  0  0  0  0  0  0  0  0  0
   43.8886  -22.3049   -0.0202 H   0  0  0  0  0  0  0  0  0  0  0  0
   42.4015  -17.7474    0.0361 H   0  0  0  0  0  0  0  0  0  0  0  0
   40.1018  -18.4953    0.0025 H   0  0  0  0  0  0  0  0  0  0  0  0
   36.7109  -18.4810   -0.0143 H   0  0  0  0  0  0  0  0  0  0  0  0
   38.0999  -18.1714   -0.8146 H   0  0  0  0  0  0  0  0  0  0  0  0
   38.0840  -18.1857    0.8181 H   0  0  0  0  0  0  0  0  0  0  0  0
   36.0712  -20.5063   -0.0393 H   0  0  0  0  0  0  0  0  0  0  0  0
   37.0192  -21.5558    0.7764 H   0  0  0  0  0  0  0  0  0  0  0  0
   37.0356  -21.5399   -0.8562 H   0  0  0  0  0  0  0  0  0  0  0  0
  1  2  2  0  0  0  0
  3  4  1  0  0  0  0
  1  6  1  0  0  0  0
  2  5  1  0  0  0  0
  5  3  2  0  0  0  0
  4  6  2  0  0  0  0
  1  7  1  0  0  0  0
  7  8  1  0  0  0  0
  8  9  2  0  0  0  0
  8 10  1  0  0  0  0
  3 11  1  0  0  0  0
 10 12  1  0  0  0  0
 10 13  1  0  0  0  0
  2 14  1  0  0  0  0
  4 15  1  0  0  0  0
  5 16  1  0  0  0  0
  6 17  1  0  0  0  0
  7 18  1  0  0  0  0
 12 19  1  0  0  0  0
 12 20  1  0  0  0  0
 12 21  1  0  0  0  0
 13 22  1  0  0  0  0
 13 23  1  0  0  0  0
 13 24  1  0  0  0  0
M  END
>  <Substance ID> (60)
60

>  <Mouse_Female_Canc> (60)
1

>  <SAL> (60)
1

>  <Rat_Male_Canc> (60)
3

>  <TD50_Rat> (60)
131

>  <TD50_Mouse> (60)
NP

>  <Rat_Female_Canc> (60)
1

>  <Canc> (60)
3

>  <MolWeight> (60)
198.65

>  <Mouse_Male_Canc> (60)
1

>  <Mouse_Male_NTP> (60)
NE

>  <ChemName> (60)
Monuron

>  <Rat_Male_NTP> (60)
CE

>  <Reference> (60)
NTP266

>  <Formula> (60)
C9H11ClN2O

>  <SMILES> (60)
O=C(N(C)C)NC1=CC=C(C=C1)Cl

>  <Rat_Female_NTP> (60)
NE

>  <CAS> (60)
150-68-5

>  <Mouse_Female_NTP> (60)
NE

>  <Synonyms> (60)
1,1-dimethyl-3-(p-chlorophenyl)urea; 1-(4-Chlorophenyl)-3,3-dimethylurea; 3-(para-Chlorophenyl)-1,1,dimethylurea; chlorfenidim; CMU; lirobetarex; monurex; monurox; monuruon; N'-(4-chlorophenyl)-N,N-dimethylurea; N-(p-chlorophenyl)-N',N'-dimethylurea; N,N-dimethyl-N'-(4-chlorophenyl)urea; Telvar; telvar monuron weedkiller; telvar w. monuron weedkiller.

$$$$
61


 27 28  0  0  0  0  0  0  0  0999 V2000
   37.4064  -26.3684    0.0247 C   0  0  0  0  0  0  0  0  0  0  0  0
   37.5770  -27.6943   -0.0028 C   0  0  0  0  0  0  0  0  0  0  0  0
   39.9724  -27.4898   -0.0184 C   0  0  0  0  0  0  0  0  0  0  0  0
   39.8036  -26.0454    0.0112 C   0  0  0  0  0  0  0  0  0  0  0  0
   38.9062  -28.2816   -0.0244 C   0  0  0  0  0  0  0  0  0  0  0  0
   38.5854  -25.5167    0.0329 C   0  0  0  0  0  0  0  0  0  0  0  0
   32.4543  -26.1201    0.0193 C   0  0  0  0  0  0  0  0  0  0  0  0
   32.2803  -27.4339   -0.0190 C   0  0  0  0  0  0  0  0  0  0  0  0
   34.6533  -27.8150   -0.0147 C   0  0  0  0  0  0  0  0  0  0  0  0
   34.8648  -26.3498    0.0259 C   0  0  0  0  0  0  0  0  0  0  0  0
   33.4289  -28.3263   -0.0363 C   0  0  0  0  0  0  0  0  0  0  0  0
   33.7963  -25.5572    0.0428 C   0  0  0  0  0  0  0  0  0  0  0  0
   30.9955  -27.9631   -0.0431 N   0  0  0  0  0  0  0  0  0  0  0  0
   36.1397  -25.6870    0.0440 O   0  0  0  0  0  0  0  0  0  0  0  0
   41.2504  -28.0376   -0.0395 N   0  0  0  0  0  0  0  0  0  0  0  0
   36.7757  -28.2925   -0.0085 H   0  0  0  0  0  0  0  0  0  0  0  0
   40.6064  -25.4492    0.0153 H   0  0  0  0  0  0  0  0  0  0  0  0
   39.0172  -29.2753   -0.0438 H   0  0  0  0  0  0  0  0  0  0  0  0
   38.4777  -24.5228    0.0550 H   0  0  0  0  0  0  0  0  0  0  0  0
   31.6597  -25.5131    0.0321 H   0  0  0  0  0  0  0  0  0  0  0  0
   35.4438  -28.4274   -0.0260 H   0  0  0  0  0  0  0  0  0  0  0  0
   33.2969  -29.3171   -0.0642 H   0  0  0  0  0  0  0  0  0  0  0  0
   33.9165  -24.5648    0.0720 H   0  0  0  0  0  0  0  0  0  0  0  0
   30.8633  -28.9539   -0.0720 H   0  0  0  0  0  0  0  0  0  0  0  0
   30.2032  -27.3532   -0.0316 H   0  0  0  0  0  0  0  0  0  0  0  0
   41.3685  -29.0304   -0.0599 H   0  0  0  0  0  0  0  0  0  0  0  0
   42.0512  -27.4389   -0.0344 H   0  0  0  0  0  0  0  0  0  0  0  0
  1  2  2  0  0  0  0
  3  4  1  0  0  0  0
  1  6  1  0  0  0  0
  2  5  1  0  0  0  0
  5  3  2  0  0  0  0
  4  6  2  0  0  0  0
  7  8  2  0  0  0  0
  9 10  1  0  0  0  0
  7 12  1  0  0  0  0
  8 11  1  0  0  0  0
 11  9  2  0  0  0  0
 10 12  2  0  0  0  0
  8 13  1  0  0  0  0
 10 14  1  0  0  0  0
 14  1  1  0  0  0  0
  3 15  1  0  0  0  0
  2 16  1  0  0  0  0
  4 17  1  0  0  0  0
  5 18  1  0  0  0  0
  6 19  1  0  0  0  0
  7 20  1  0  0  0  0
  9 21  1  0  0  0  0
 11 22  1  0  0  0  0
 12 23  1  0  0  0  0
 13 24  1  0  0  0  0
 13 25  1  0  0  0  0
 15 26  1  0  0  0  0
 15 27  1  0  0  0  0
M  END
>  <Substance ID> (61)
61

>  <Mouse_Female_Canc> (61)
3

>  <SAL> (61)
3

>  <Rat_Male_Canc> (61)
3

>  <TD50_Rat> (61)
9.51

>  <TD50_Mouse> (61)
33.6

>  <Rat_Female_Canc> (61)
3

>  <Canc> (61)
3

>  <MolWeight> (61)
200.24

>  <Mouse_Male_Canc> (61)
3

>  <Mouse_Male_NTP> (61)
ND

>  <ChemName> (61)
4,4'-Oxydianiline 

>  <Rat_Male_NTP> (61)
ND

>  <Reference> (61)
NTP205

>  <Formula> (61)
C12H12N2O

>  <SMILES> (61)
NC1=CC=C(C=C1)OC2=CC=C(C=C2)N

>  <Rat_Female_NTP> (61)
ND

>  <CAS> (61)
101-80-4

>  <Mouse_Female_NTP> (61)
ND

>  <Synonyms> (61)
4,4'-diaminodiphenyl ether; 4,4'-diaminodiphenyloxide; 4,4'-diaminophenyl ether; 4,4'-diaminophenyl oxide; 4,4-dadpe; 4,4'-oxybisbenzenamine; 4,4'-oxydiphenylamine; 4-Aminophenyl ether; bis (p-Aminophenyl) Ether; DADPE; ODA; oxybis(4-aminobenzene); oxydi-p-phenylenediamine; oxydianiline.

$$$$
62


  8  7  0  0  0  0  0  0  0  0999 V2000
   31.6313  -31.3083    1.4438 Cl  0  0  0  0  0  0  0  0  0  0  0  0
   32.2046  -31.0793   -0.2114 C   0  0  0  0  0  0  0  0  0  0  0  0
   33.7183  -31.3490   -0.2700 C   0  0  0  0  0  0  0  0  0  0  0  0
   34.5566  -30.2269    0.8063 Cl  0  0  0  0  0  0  0  0  0  0  0  0
   31.3649  -32.2016   -1.2868 Cl  0  0  0  0  0  0  0  0  0  0  0  0
   34.0389  -33.0089    0.2423 Cl  0  0  0  0  0  0  0  0  0  0  0  0
   31.8826  -29.4191   -0.7226 Cl  0  0  0  0  0  0  0  0  0  0  0  0
   34.0454  -31.2201   -1.2061 H   0  0  0  0  0  0  0  0  0  0  0  0
  1  2  1  0  0  0  0
  2  3  1  0  0  0  0
  3  4  1  0  0  0  0
  2  5  1  0  0  0  0
  3  6  1  0  0  0  0
  2  7  1  0  0  0  0
  3  8  1  0  0  0  0
M  END
>  <Substance ID> (62)
62

>  <Mouse_Female_Canc> (62)
3

>  <SAL> (62)
1

>  <Rat_Male_Canc> (62)
2

>  <TD50_Rat> (62)
NP

>  <TD50_Mouse> (62)
57.3

>  <Rat_Female_Canc> (62)
1

>  <Canc> (62)
3

>  <MolWeight> (62)
202.29

>  <Mouse_Male_Canc> (62)
3

>  <Mouse_Male_NTP> (62)
ND

>  <ChemName> (62)
Pentachloroethane

>  <Rat_Male_NTP> (62)
ND

>  <Reference> (62)
NTP232

>  <Formula> (62)
C2HCl5

>  <SMILES> (62)
ClC(C(Cl)Cl)(Cl)Cl

>  <Rat_Female_NTP> (62)
ND

>  <CAS> (62)
76-01-7

>  <Mouse_Female_NTP> (62)
ND

>  <Synonyms> (62)
Ethane pentachloride; pentalin.

$$$$
63


 10 10  0  0  0  0  0  0  0  0999 V2000
   38.3242  -43.6036   -0.4490 C   0  0  0  0  0  0  0  0  0  0  0  0
   37.1047  -43.6356    0.4396 C   0  0  2  0  0  0  0  0  0  0  0  0
   38.0463  -44.7389    0.3935 O   0  0  0  0  0  0  0  0  0  0  0  0
   35.8875  -44.0939   -0.3850 C   0  0  0  0  0  0  0  0  0  0  0  0
   38.2251  -43.6779   -1.4413 H   0  0  0  0  0  0  0  0  0  0  0  0
   39.0866  -42.9931   -0.2344 H   0  0  0  0  0  0  0  0  0  0  0  0
   36.7103  -43.0221    1.1238 H   0  0  0  0  0  0  0  0  0  0  0  0
   35.0771  -44.1164    0.2004 H   0  0  0  0  0  0  0  0  0  0  0  0
   36.0582  -45.0081   -0.7524 H   0  0  0  0  0  0  0  0  0  0  0  0
   35.7356  -43.4550   -1.1392 H   0  0  0  0  0  0  0  0  0  0  0  0
  2  1  1  0  0  0  0
  3  2  1  0  0  0  0
  1  3  1  0  0  0  0
  2  4  1  0  0  0  0
  1  5  1  0  0  0  0
  1  6  1  0  0  0  0
  2  7  1  0  0  0  0
  4  8  1  0  0  0  0
  4  9  1  0  0  0  0
  4 10  1  0  0  0  0
M  END
>  <Substance ID> (63)
63

>  <Mouse_Female_Canc> (63)
3

>  <SAL> (63)
3

>  <Rat_Male_Canc> (63)
3

>  <TD50_Rat> (63)
74.4

>  <TD50_Mouse> (63)
912

>  <Rat_Female_Canc> (63)
3

>  <Canc> (63)
3

>  <MolWeight> (63)
58.08

>  <Mouse_Male_Canc> (63)
3

>  <Mouse_Male_NTP> (63)
CE

>  <ChemName> (63)
Propylene Oxide

>  <Rat_Male_NTP> (63)
SE

>  <Reference> (63)
NTP267

>  <Formula> (63)
C3H6O

>  <SMILES> (63)
CC1CO1

>  <Rat_Female_NTP> (63)
SE

>  <CAS> (63)
75-56-9

>  <Mouse_Female_NTP> (63)
CE

>  <Synonyms> (63)
1,2-Epoxypropane; 1,2-Propylene Oxide; 2,3-epoxypropane; AD 6; ad 6 (suspending agent); epoxypropane; Methyl Ethylene Oxide; methyloxirane; Propene oxide; propylene epoxide.

$$$$
64


  9  8  0  0  0  0  0  0  0  0999 V2000
   48.0769  -71.0286    0.1911 Cl  0  0  0  0  0  0  0  0  0  0  0  0
   49.5528  -71.8343   -0.2100 C   0  0  0  0  0  0  0  0  0  0  0  0
   50.7217  -71.2634    0.0734 C   0  0  0  0  0  0  0  0  0  0  0  0
   52.0030  -71.9642   -0.2754 C   0  0  0  0  0  0  0  0  0  0  0  0
   53.3753  -70.9672    0.2203 Cl  0  0  0  0  0  0  0  0  0  0  0  0
   49.5286  -72.7295   -0.6550 H   0  0  0  0  0  0  0  0  0  0  0  0
   50.7462  -70.3682    0.5184 H   0  0  0  0  0  0  0  0  0  0  0  0
   52.0415  -72.8435    0.1993 H   0  0  0  0  0  0  0  0  0  0  0  0
   52.0413  -72.1161   -1.2630 H   0  0  0  0  0  0  0  0  0  0  0  0
  1  2  1  0  0  0  0
  2  3  2  0  0  0  0
  3  4  1  0  0  0  0
  4  5  1  0  0  0  0
  2  6  1  0  0  0  0
  3  7  1  0  0  0  0
  4  8  1  0  0  0  0
  4  9  1  0  0  0  0
M  END
>  <Substance ID> (64)
64

>  <Mouse_Female_Canc> (64)
3

>  <SAL> (64)
3

>  <Rat_Male_Canc> (64)
3

>  <TD50_Rat> (64)
94

>  <TD50_Mouse> (64)
49.6

>  <Rat_Female_Canc> (64)
3

>  <Canc> (64)
3

>  <MolWeight> (64)
110.97

>  <Mouse_Male_Canc> (64)
ND

>  <Mouse_Male_NTP> (64)
ND

>  <ChemName> (64)
Telone II, Technical

>  <Rat_Male_NTP> (64)
CE

>  <Reference> (64)
NTP269

>  <Formula> (64)
C3H4Cl2

>  <SMILES> (64)
ClCC=CCl

>  <Rat_Female_NTP> (64)
SE

>  <CAS> (64)
542-75-6

>  <Mouse_Female_NTP> (64)
CE

>  <Synonyms> (64)
1,3-Dichloro-1-Propene; 1,3-dichloro-1-propylene; 1,3-Dichloro-2-propene; 1,3-Dichloropropene; 1,3-dichloropropene-1; 1,3-Dichloropropene, E,Z-; 1,3-Dichloropropene (mixed); 1,3-Dichloropropene (mixed isomers); 1,3-Dichloropropylene; 1,3-D; 3-Chloroallyl Chloride; 3-Chloropropenyl Chloride; alpha-Chloroallyl Chloride; alpha,gamma-Dichloropropylene; Dichloropropene, 1,3- (Telone II) ; Chloroallyl Chloride; Chloropropenyl chloride; D-D92; dorlone ii; Telone; Telone II; Telone IIR; Telone II Soil Fumigant; Tri-Form; gamma-chloroallyl chloride.

$$$$
65


 22 24  0  0  0  0  0  0  0  0999 V2000
   39.0435  -62.7584    0.0040 O   0  0  0  0  0  0  0  0  0  0  0  0
   39.0689  -59.9266   -0.0001 O   0  0  0  0  0  0  0  0  0  0  0  0
   41.5250  -59.9809   -0.0004 C   0  0  0  0  0  0  0  0  0  0  0  0
   42.6702  -60.6587    0.0002 C   0  0  0  0  0  0  0  0  0  0  0  0
   42.6513  -62.1131   -0.0008 C   0  0  0  0  0  0  0  0  0  0  0  0
   41.4898  -62.7603   -0.0003 C   0  0  0  0  0  0  0  0  0  0  0  0
   35.4554  -60.5957   -0.0011 C   0  0  0  0  0  0  0  0  0  0  0  0
   35.4489  -62.0489   -0.0009 C   0  0  0  0  0  0  0  0  0  0  0  0
   36.5982  -62.7171   -0.0002 C   0  0  0  0  0  0  0  0  0  0  0  0
   37.8783  -62.0021    0.0015 C   0  0  0  0  0  0  0  0  0  0  0  0
   37.8872  -60.6671   -0.0002 C   0  0  0  0  0  0  0  0  0  0  0  0
   36.6124  -59.9376   -0.0006 C   0  0  0  0  0  0  0  0  0  0  0  0
   33.9628  -59.7240    0.0009 Cl  0  0  0  0  0  0  0  0  0  0  0  0
   33.9500  -62.9090   -0.0019 Cl  0  0  0  0  0  0  0  0  0  0  0  0
   44.1778  -59.8145    0.0016 Cl  0  0  0  0  0  0  0  0  0  0  0  0
   44.1348  -62.9999   -0.0009 Cl  0  0  0  0  0  0  0  0  0  0  0  0
   40.2372  -60.6881    0.0002 C   0  0  0  0  0  0  0  0  0  0  0  0
   40.2217  -62.0235    0.0009 C   0  0  0  0  0  0  0  0  0  0  0  0
   41.5411  -58.9811   -0.0012 H   0  0  0  0  0  0  0  0  0  0  0  0
   41.4808  -63.7602   -0.0008 H   0  0  0  0  0  0  0  0  0  0  0  0
   36.5896  -63.7171   -0.0007 H   0  0  0  0  0  0  0  0  0  0  0  0
   36.6138  -58.9376   -0.0005 H   0  0  0  0  0  0  0  0  0  0  0  0
  6 18  1  0  0  0  0
 18 17  2  0  0  0  0
  1 10  1  0  0  0  0
 11  2  1  0  0  0  0
 17  3  1  0  0  0  0
  3  4  2  0  0  0  0
  4  5  1  0  0  0  0
  5  6  2  0  0  0  0
  7 12  2  0  0  0  0
  7  8  1  0  0  0  0
  8  9  2  0  0  0  0
  9 10  1  0  0  0  0
 10 11  2  0  0  0  0
 11 12  1  0  0  0  0
  7 13  1  0  0  0  0
  8 14  1  0  0  0  0
  4 15  1  0  0  0  0
  5 16  1  0  0  0  0
  2 17  1  0  0  0  0
  1 18  1  0  0  0  0
  3 19  1  0  0  0  0
  6 20  1  0  0  0  0
  9 21  1  0  0  0  0
 12 22  1  0  0  0  0
M  END
>  <Substance ID> (65)
65

>  <Mouse_Female_Canc> (65)
3

>  <SAL> (65)
1

>  <Rat_Male_Canc> (65)
3

>  <TD50_Rat> (65)
4.57E-05

>  <TD50_Mouse> (65)
1.56E-04

>  <Rat_Female_Canc> (65)
3

>  <Canc> (65)
3

>  <MolWeight> (65)
321.97

>  <Mouse_Male_Canc> (65)
3

>  <Mouse_Male_NTP> (65)
ND

>  <ChemName> (65)
2,3,7,8-Tetrachlorodibenzo-p-dioxin

>  <Rat_Male_NTP> (65)
ND

>  <Reference> (65)
NTP209

>  <Formula> (65)
C12H4Cl4O2

>  <SMILES> (65)
ClC1=CC2=C(C=C1Cl)OC3=C(C=C(C(=C3)Cl)Cl)O2

>  <Rat_Female_NTP> (65)
ND

>  <CAS> (65)
1746-01-6

>  <Mouse_Female_NTP> (65)
ND

>  <Synonyms> (65)
2,3,7,8-T4CDD; 2,3,7,8-tcdd; 2,3,7,8-Tetrachlorodibenzo-1,4-dioxin; 2,3,7,8-Tetrachlorodibenzo[b,e][1,4]dioxin; 2,3,7,8-tetrachlorodibenzodioxin; dibenzo-dioxin, 2,3,7,8-tetrachlorinated; Dioxin; TCDBD; TCDD; tetradioxin; Tetrachlorodibenzo-1,4-dioxin; tetrachlorodibenzodioxin.

$$$$
66


  8  7  0  0  0  0  0  0  0  0999 V2000
   32.8841  -78.4868    1.3067 Cl  0  0  0  0  0  0  0  0  0  0  0  0
   33.7468  -77.8816   -0.1114 C   0  0  0  0  0  0  0  0  0  0  0  0
   35.2534  -77.8133    0.1963 C   0  0  0  0  0  0  0  0  0  0  0  0
   33.1542  -76.2674   -0.5178 Cl  0  0  0  0  0  0  0  0  0  0  0  0
   33.4743  -78.9707   -1.4756 Cl  0  0  0  0  0  0  0  0  0  0  0  0
   35.8431  -79.4282    0.6023 Cl  0  0  0  0  0  0  0  0  0  0  0  0
   35.7426  -77.4715   -0.6062 H   0  0  0  0  0  0  0  0  0  0  0  0
   35.4084  -77.1976    0.9689 H   0  0  0  0  0  0  0  0  0  0  0  0
  1  2  1  0  0  0  0
  2  3  1  0  0  0  0
  2  4  1  0  0  0  0
  2  5  1  0  0  0  0
  3  6  1  0  0  0  0
  3  7  1  0  0  0  0
  3  8  1  0  0  0  0
M  END
>  <Substance ID> (66)
66

>  <Mouse_Female_Canc> (66)
3

>  <SAL> (66)
1

>  <Rat_Male_Canc> (66)
2

>  <TD50_Rat> (66)
NP

>  <TD50_Mouse> (66)
182

>  <Rat_Female_Canc> (66)
1

>  <Canc> (66)
3

>  <MolWeight> (66)
167.85

>  <Mouse_Male_Canc> (66)
3

>  <Mouse_Male_NTP> (66)
ND

>  <ChemName> (66)
1,1,1,2-Tetrachloroethane

>  <Rat_Male_NTP> (66)
ND

>  <Reference> (66)
NTP237

>  <Formula> (66)
C2H2Cl4

>  <SMILES> (66)
ClC(CCl)(Cl)Cl

>  <Rat_Female_NTP> (66)
ND

>  <CAS> (66)
630-20-6

>  <Mouse_Female_NTP> (66)
ND

>  <Synonyms> (66)
Asym-tetrachloroethane; Tetrachloroethane, 1,1,1,2-.

$$$$
67


 38 38  0  0  0  0  0  0  0  0999 V2000
   -8.6719    0.9847   -0.1715 C   0  0  0  0  0  0  0  0  0  0  0  0
   -8.6747   -0.4088   -0.2004 C   0  0  0  0  0  0  0  0  0  0  0  0
   -7.4673   -1.1193   -0.2261 C   0  0  0  0  0  0  0  0  0  0  0  0
   -6.2666   -0.3940   -0.2272 C   0  0  0  0  0  0  0  0  0  0  0  0
   -6.2552    1.0112   -0.2004 C   0  0  0  0  0  0  0  0  0  0  0  0
   -7.4766    1.7118   -0.1665 C   0  0  0  0  0  0  0  0  0  0  0  0
   -7.5592    3.2208   -0.1357 C   0  0  0  0  0  0  0  0  0  0  0  0
   -5.0374    1.7574   -0.2005 N   0  0  0  0  0  0  0  0  0  0  0  0
   -3.9326    1.1644   -0.3527 C   0  0  0  0  0  0  0  0  0  0  0  0
   -2.8868    0.5993   -0.5061 O   0  0  0  0  0  0  0  0  0  0  0  0
   -7.5451   -2.5415   -0.2497 N   0  0  0  0  0  0  0  0  0  0  0  0
   -6.4836   -3.2265   -0.2596 C   0  0  0  0  0  0  0  0  0  0  0  0
   -5.4746   -3.8731   -0.2682 O   0  0  0  0  0  0  0  0  0  0  0  0
   -9.6349    1.5211   -0.1517 H   0  0  0  0  0  0  0  0  0  0  0  0
   -9.6350   -0.9502   -0.2021 H   0  0  0  0  0  0  0  0  0  0  0  0
   -5.3139   -0.9451   -0.2447 H   0  0  0  0  0  0  0  0  0  0  0  0
   -6.5759    3.7311   -0.2147 H   0  0  0  0  0  0  0  0  0  0  0  0
   -8.0311    3.5541    0.8167 H   0  0  0  0  0  0  0  0  0  0  0  0
   -8.1831    3.5873   -0.9825 H   0  0  0  0  0  0  0  0  0  0  0  0
    4.0192    0.0095   -0.0504 C   0  0  0  0  0  0  0  0  0  0  0  0
    4.0220   -1.3938   -0.0191 C   0  0  0  0  0  0  0  0  0  0  0  0
    5.2172   -2.0997   -0.1408 C   0  0  0  0  0  0  0  0  0  0  0  0
    6.4177   -1.4086   -0.2922 C   0  0  0  0  0  0  0  0  0  0  0  0
    6.4400   -0.0042   -0.3234 C   0  0  0  0  0  0  0  0  0  0  0  0
    5.2311    0.7105   -0.2057 C   0  0  0  0  0  0  0  0  0  0  0  0
    5.1981    2.2243   -0.2325 C   0  0  0  0  0  0  0  0  0  0  0  0
    7.6663    0.7131   -0.4760 N   0  0  0  0  0  0  0  0  0  0  0  0
    8.7633    0.0864   -0.5011 C   0  0  0  0  0  0  0  0  0  0  0  0
    9.8011   -0.5128   -0.5204 O   0  0  0  0  0  0  0  0  0  0  0  0
    2.8111    0.7629    0.0711 N   0  0  0  0  0  0  0  0  0  0  0  0
    1.7196    0.1597    0.2739 C   0  0  0  0  0  0  0  0  0  0  0  0
    0.6925   -0.4253    0.4738 O   0  0  0  0  0  0  0  0  0  0  0  0
    3.0890   -1.9672    0.0980 H   0  0  0  0  0  0  0  0  0  0  0  0
    5.2120   -3.2018   -0.1190 H   0  0  0  0  0  0  0  0  0  0  0  0
    7.3428   -1.9986   -0.3896 H   0  0  0  0  0  0  0  0  0  0  0  0
    6.1989    2.7017   -0.2882 H   0  0  0  0  0  0  0  0  0  0  0  0
    4.7140    2.6186    0.6900 H   0  0  0  0  0  0  0  0  0  0  0  0
    4.6200    2.5778   -1.1166 H   0  0  0  0  0  0  0  0  0  0  0  0
  1  2  2  0  0  0  0
  1  6  1  0  0  0  0
  1 14  1  0  0  0  0
  2  3  1  0  0  0  0
  2 15  1  0  0  0  0
  3  4  2  0  0  0  0
  3 11  1  0  0  0  0
  4  5  1  0  0  0  0
  4 16  1  0  0  0  0
  5  6  2  0  0  0  0
  5  8  1  0  0  0  0
  6  7  1  0  0  0  0
  7 17  1  0  0  0  0
  7 18  1  1  0  0  0
  7 19  1  6  0  0  0
  8  9  2  0  0  0  0
  9 10  2  0  0  0  0
 11 12  2  0  0  0  0
 12 13  2  0  0  0  0
 20 21  2  0  0  0  0
 20 25  1  0  0  0  0
 20 30  1  0  0  0  0
 21 22  1  0  0  0  0
 21 33  1  0  0  0  0
 22 23  2  0  0  0  0
 22 34  1  0  0  0  0
 23 24  1  0  0  0  0
 23 35  1  0  0  0  0
 24 25  2  0  0  0  0
 24 27  1  0  0  0  0
 25 26  1  0  0  0  0
 26 36  1  0  0  0  0
 26 37  1  1  0  0  0
 26 38  1  6  0  0  0
 27 28  2  0  0  0  0
 28 29  2  0  0  0  0
 30 31  2  0  0  0  0
 31 32  2  0  0  0  0
M  END
>  <Substance ID> (67)
67

>  <Mouse_Female_Canc> (67)
3

>  <SAL> (67)
3

>  <Rat_Male_Canc> (67)
3

>  <TD50_Rat> (67)
33.7

>  <TD50_Mouse> (67)
250

>  <Rat_Female_Canc> (67)
3

>  <Canc> (67)
3

>  <MolWeight> (67)
174.2

>  <Mouse_Male_Canc> (67)
1

>  <Mouse_Male_NTP> (67)
ND

>  <ChemName> (67)
Toluene Diisocyanate 

>  <Rat_Male_NTP> (67)
ND

>  <Reference> (67)
NTP251

>  <Formula> (67)
C9H6N2O2.C9H6N2O2

>  <SMILES> (67)
O=C=N/c1ccc(c(/N=C=O)c1)[C@@H3].O=C=N/c1cccc(/N=C=O)c1[C@@H3]

>  <Rat_Female_NTP> (67)
ND

>  <CAS> (67)
26471-62-5

>  <Mouse_Female_NTP> (67)
ND

>  <Synonyms> (67)
2,4 + 2,6-Toluenediisocyanate; 2,4-/2,6-Toluene diisocyanate mixture; Toluene diisocyanate (unspecified isomer); Toluene diisocyantes (mixture); tolylene isocyanate; 2,4 (80%)- and 2,6 (20%)- Toluene Diisocyanate; 2,4 (80)-and 2,6 (20)-Toluene Diisocyanate; m-tolylidene diisocyanate; diisocyanatomethylbenzene; diisocyanatotoluene; desmodur t100; hylene-t; isocyanic acid, methyl-m-phenylene ester; methyl-meta-phenylene diisocyanate; methylphenylene isocyanate; mondur-td; mondur-td-80; nacconate-100; niax isocyanate tdi; rubinate tdi; rubinate tdi 80/20; T 100; TDI-80; tdi-80-20; Toluene diisocyanates; Toluene diisocyanate (mixed isomers); Toluene diisocyanate mixture; TOLUENE DIISOCYANATE, MONOMER (2,4-80%, 2,6-20%).

$$$$
68


  6  5  0  0  0  0  0  0  0  0999 V2000
    3.8787   -3.8468   -0.0004 C   0  0  0  0  0  0  0  0  0  0  0  0
    2.9584   -2.3845   -0.0006 Cl  0  0  0  0  0  0  0  0  0  0  0  0
    3.0713   -5.3753   -0.0005 Cl  0  0  0  0  0  0  0  0  0  0  0  0
    5.2084   -3.7966   -0.0001 C   0  0  0  0  0  0  0  0  0  0  0  0
    5.6752   -2.9122    0.0001 H   0  0  0  0  0  0  0  0  0  0  0  0
    6.1284   -5.2590   -0.0004 Cl  0  0  0  0  0  0  0  0  0  0  0  0
  1  2  1  0  0  0  0
  1  3  1  0  0  0  0
  1  4  2  0  0  0  0
  4  5  1  0  0  0  0
  4  6  1  0  0  0  0
M  END
>  <Substance ID> (68)
68

>  <Mouse_Female_Canc> (68)
3

>  <SAL> (68)
1

>  <Rat_Male_Canc> (68)
ND

>  <TD50_Rat> (68)
NP

>  <TD50_Mouse> (68)
1580

>  <Rat_Female_Canc> (68)
1

>  <Canc> (68)
3

>  <MolWeight> (68)
131.39

>  <Mouse_Male_Canc> (68)
3

>  <Mouse_Male_NTP> (68)
ND

>  <ChemName> (68)
Trichloroethylene

>  <Rat_Male_NTP> (68)
ND

>  <Reference> (68)
NTP243

>  <Formula> (68)
C2HCl3

>  <SMILES> (68)
ClC(=CCl)Cl

>  <Rat_Female_NTP> (68)
ND

>  <CAS> (68)
79-01-6

>  <Mouse_Female_NTP> (68)
ND

>  <Synonyms> (68)
1-chloro-2,2-dichloroethylene; 1,1-dichloro-2-chloroethylene; 1,2,2-trichloroethylene; anamenth; benzinol; blacosolv; blancosolv; cecolene; chlorilen; chlorylea; chorylen; circosolv; crawhaspol; densinfluat; dow-tri; dukeron; fleck-flip; flock flip; fluate; lanadin; lethurin; narcogen; narkogen; narkosoid; Nialk; perm-a-chlor; perm-a-clor; petzinol; philex; threthylene; Triad; Trial; triasol; triklone; Triol; tri-plus; tri-plus m; vestrol; vitran; trieline; 1,1,2-trichloroethene; Acetylene trichloride; Ethinyl trichloride; ethylene trichloride; triciene; 1,1,2-Trichloroethylene; Tri; TCE; trichloroethene; Westrosol; Chlorylen; Gemalgene; Germalgene; Tri-Clene; Trielene; Trilene; Trichloran; Trichloren; Algylen; Trimar; Triline; Trethylene; Trichlorathane; Trichloroethylene (TCE).

$$$$
69


 80 79  0  0  0  0  0  0  0  0999 V2000
    3.0031  -10.1617    0.2611 C   0  0  0  0  0  0  0  0  0  0  0  0
    4.3338   -9.5902   -0.2718 C   0  0  0  0  0  0  0  0  0  0  0  0
    5.4928  -10.4205    0.2993 C   0  0  0  0  0  0  0  0  0  0  0  0
    6.8623   -9.9304   -0.2424 C   0  0  0  0  0  0  0  0  0  0  0  0
    7.9472  -10.8679    0.3284 C   0  0  2  0  0  0  0  0  0  0  0  0
    9.3759  -10.4233   -0.1863 C   0  0  0  0  0  0  0  0  0  0  0  0
   10.4355  -11.2373    0.3791 O   0  0  0  0  0  0  0  0  0  0  0  0
   11.8211  -10.9011   -0.1678 P   0  0  0  0  0  0  0  0  0  0  0  0
   12.7323  -10.7464    1.0389 O   0  0  0  0  0  0  0  0  0  0  0  0
    7.5564  -12.3160   -0.1238 C   0  0  0  0  0  0  0  0  0  0  0  0
    8.4233  -13.4121    0.5036 C   0  0  0  0  0  0  0  0  0  0  0  0
   13.8976   -9.9099    0.7852 C   0  0  0  0  0  0  0  0  0  0  0  0
   15.1169  -10.7976    0.4113 C   0  0  1  0  0  0  0  0  0  0  0  0
   16.3605   -9.8322    0.1685 C   0  0  0  0  0  0  0  0  0  0  0  0
   17.6642  -10.5376   -0.3089 C   0  0  0  0  0  0  0  0  0  0  0  0
   18.8395   -9.5467   -0.3536 C   0  0  0  0  0  0  0  0  0  0  0  0
   20.1234  -10.3083   -0.7434 C   0  0  0  0  0  0  0  0  0  0  0  0
   15.2911  -11.7915    1.6404 C   0  0  0  0  0  0  0  0  0  0  0  0
   16.3591  -12.9121    1.5005 C   0  0  0  0  0  0  0  0  0  0  0  0
   12.3520  -12.1748   -0.7890 O   0  0  0  0  0  0  0  0  0  0  0  0
   11.9362  -13.3012    0.0033 C   0  0  0  0  0  0  0  0  0  0  0  0
   12.2864  -14.6759   -0.6387 C   0  0  2  0  0  0  0  0  0  0  0  0
   11.6978  -15.7814    0.2569 C   0  0  0  0  0  0  0  0  0  0  0  0
   12.0174  -17.1517   -0.3683 C   0  0  0  0  0  0  0  0  0  0  0  0
   11.4616  -18.2773    0.5152 C   0  0  0  0  0  0  0  0  0  0  0  0
   11.8438  -19.6339   -0.1040 C   0  0  0  0  0  0  0  0  0  0  0  0
   13.8223  -14.9148   -0.7521 C   0  0  0  0  0  0  0  0  0  0  0  0
   14.5081  -13.9380   -1.7251 C   0  0  0  0  0  0  0  0  0  0  0  0
   11.9483   -9.8767   -1.0498 O   0  0  0  0  0  0  0  0  0  0  0  0
    2.2405   -9.6282   -0.1046 H   0  0  0  0  0  0  0  0  0  0  0  0
    2.9949  -10.1126    1.2599 H   0  0  0  0  0  0  0  0  0  0  0  0
    2.9104  -11.1150   -0.0263 H   0  0  0  0  0  0  0  0  0  0  0  0
    4.3450   -9.6400   -1.2705 H   0  0  0  0  0  0  0  0  0  0  0  0
    4.4295   -8.6373    0.0160 H   0  0  0  0  0  0  0  0  0  0  0  0
    5.4900  -10.3404    1.2961 H   0  0  0  0  0  0  0  0  0  0  0  0
    5.3649  -11.3781    0.0411 H   0  0  0  0  0  0  0  0  0  0  0  0
    6.8682   -9.9696   -1.2416 H   0  0  0  0  0  0  0  0  0  0  0  0
    7.0312   -8.9910    0.0558 H   0  0  0  0  0  0  0  0  0  0  0  0
    7.9975  -10.8314    1.3265 H   0  0  0  0  0  0  0  0  0  0  0  0
    9.4007  -10.5079   -1.1824 H   0  0  0  0  0  0  0  0  0  0  0  0
    9.5293   -9.4694    0.0716 H   0  0  0  0  0  0  0  0  0  0  0  0
    6.6042  -12.4808    0.1335 H   0  0  0  0  0  0  0  0  0  0  0  0
    7.6479  -12.3716   -1.1180 H   0  0  0  0  0  0  0  0  0  0  0  0
    8.1212  -14.3064    0.1737 H   0  0  0  0  0  0  0  0  0  0  0  0
    8.3360  -13.3778    1.4992 H   0  0  0  0  0  0  0  0  0  0  0  0
    9.3794  -13.2686    0.2480 H   0  0  0  0  0  0  0  0  0  0  0  0
   13.6987   -9.2853    0.0299 H   0  0  0  0  0  0  0  0  0  0  0  0
   14.1117   -9.3822    1.6072 H   0  0  0  0  0  0  0  0  0  0  0  0
   15.0144  -11.3346   -0.4259 H   0  0  0  0  0  0  0  0  0  0  0  0
   16.1001   -9.1611   -0.5256 H   0  0  0  0  0  0  0  0  0  0  0  0
   16.5601   -9.3626    1.0285 H   0  0  0  0  0  0  0  0  0  0  0  0
   17.8855  -11.2795    0.3241 H   0  0  0  0  0  0  0  0  0  0  0  0
   17.5172  -10.9125   -1.2242 H   0  0  0  0  0  0  0  0  0  0  0  0
   18.6528   -8.8355   -1.0313 H   0  0  0  0  0  0  0  0  0  0  0  0
   18.9587   -9.1272    0.5463 H   0  0  0  0  0  0  0  0  0  0  0  0
   20.8932   -9.6707   -0.7748 H   0  0  0  0  0  0  0  0  0  0  0  0
   20.0023  -10.7284   -1.6428 H   0  0  0  0  0  0  0  0  0  0  0  0
   20.3082  -11.0200   -0.0656 H   0  0  0  0  0  0  0  0  0  0  0  0
   15.5344  -11.2420    2.4397 H   0  0  0  0  0  0  0  0  0  0  0  0
   14.4084  -12.2349    1.7963 H   0  0  0  0  0  0  0  0  0  0  0  0
   16.3724  -13.4664    2.3327 H   0  0  0  0  0  0  0  0  0  0  0  0
   17.2594  -12.4996    1.3609 H   0  0  0  0  0  0  0  0  0  0  0  0
   16.1337  -13.4922    0.7177 H   0  0  0  0  0  0  0  0  0  0  0  0
   12.3863  -13.2445    0.8945 H   0  0  0  0  0  0  0  0  0  0  0  0
   10.9450  -13.2528    0.1262 H   0  0  0  0  0  0  0  0  0  0  0  0
   11.9066  -14.6875   -1.5637 H   0  0  0  0  0  0  0  0  0  0  0  0
   12.1035  -15.7258    1.1692 H   0  0  0  0  0  0  0  0  0  0  0  0
   10.7067  -15.6663    0.3247 H   0  0  0  0  0  0  0  0  0  0  0  0
   11.6001  -17.2067   -1.2753 H   0  0  0  0  0  0  0  0  0  0  0  0
   13.0087  -17.2546   -0.4501 H   0  0  0  0  0  0  0  0  0  0  0  0
   11.8510  -18.2062    1.4335 H   0  0  0  0  0  0  0  0  0  0  0  0
   10.4659  -18.2015    0.5681 H   0  0  0  0  0  0  0  0  0  0  0  0
   11.4854  -20.3736    0.4655 H   0  0  0  0  0  0  0  0  0  0  0  0
   12.8397  -19.7076   -0.1576 H   0  0  0  0  0  0  0  0  0  0  0  0
   11.4549  -19.7029   -1.0227 H   0  0  0  0  0  0  0  0  0  0  0  0
   14.2307  -14.8025    0.1538 H   0  0  0  0  0  0  0  0  0  0  0  0
   13.9774  -15.8485   -1.0748 H   0  0  0  0  0  0  0  0  0  0  0  0
   15.4879  -14.1345   -1.7600 H   0  0  0  0  0  0  0  0  0  0  0  0
   14.3678  -12.9994   -1.4100 H   0  0  0  0  0  0  0  0  0  0  0  0
   14.1145  -14.0451   -2.6382 H   0  0  0  0  0  0  0  0  0  0  0  0
  1  2  1  0  0  0  0
  2  3  1  0  0  0  0
  3  4  1  0  0  0  0
  4  5  1  0  0  0  0
  5  6  1  0  0  0  0
  6  7  1  0  0  0  0
  7  8  1  0  0  0  0
  8  9  1  0  0  0  0
  5 10  1  0  0  0  0
 10 11  1  0  0  0  0
  9 12  1  0  0  0  0
 12 13  1  0  0  0  0
 13 14  1  0  0  0  0
 14 15  1  0  0  0  0
 15 16  1  0  0  0  0
 16 17  1  0  0  0  0
 13 18  1  0  0  0  0
 18 19  1  0  0  0  0
  8 20  1  0  0  0  0
 20 21  1  0  0  0  0
 21 22  1  0  0  0  0
 22 23  1  0  0  0  0
 23 24  1  0  0  0  0
 24 25  1  0  0  0  0
 25 26  1  0  0  0  0
 22 27  1  0  0  0  0
 27 28  1  0  0  0  0
  8 29  2  0  0  0  0
  1 30  1  0  0  0  0
  1 31  1  0  0  0  0
  1 32  1  0  0  0  0
  2 33  1  0  0  0  0
  2 34  1  0  0  0  0
  3 35  1  0  0  0  0
  3 36  1  0  0  0  0
  4 37  1  0  0  0  0
  4 38  1  0  0  0  0
  5 39  1  0  0  0  0
  6 40  1  0  0  0  0
  6 41  1  0  0  0  0
 10 42  1  0  0  0  0
 10 43  1  0  0  0  0
 11 44  1  0  0  0  0
 11 45  1  0  0  0  0
 11 46  1  0  0  0  0
 12 47  1  0  0  0  0
 12 48  1  0  0  0  0
 13 49  1  0  0  0  0
 14 50  1  0  0  0  0
 14 51  1  0  0  0  0
 15 52  1  0  0  0  0
 15 53  1  0  0  0  0
 16 54  1  0  0  0  0
 16 55  1  0  0  0  0
 17 56  1  0  0  0  0
 17 57  1  0  0  0  0
 17 58  1  0  0  0  0
 18 59  1  0  0  0  0
 18 60  1  0  0  0  0
 19 61  1  0  0  0  0
 19 62  1  0  0  0  0
 19 63  1  0  0  0  0
 21 64  1  0  0  0  0
 21 65  1  0  0  0  0
 22 66  1  0  0  0  0
 23 67  1  0  0  0  0
 23 68  1  0  0  0  0
 24 69  1  0  0  0  0
 24 70  1  0  0  0  0
 25 71  1  0  0  0  0
 25 72  1  0  0  0  0
 26 73  1  0  0  0  0
 26 74  1  0  0  0  0
 26 75  1  0  0  0  0
 27 76  1  0  0  0  0
 27 77  1  0  0  0  0
 28 78  1  0  0  0  0
 28 79  1  0  0  0  0
 28 80  1  0  0  0  0
M  END
>  <Substance ID> (69)
69

>  <Mouse_Female_Canc> (69)
3

>  <SAL> (69)
1

>  <Rat_Male_Canc> (69)
2

>  <TD50_Rat> (69)
NP

>  <TD50_Mouse> (69)
2560

>  <Rat_Female_Canc> (69)
1

>  <Canc> (69)
3

>  <MolWeight> (69)
434.64

>  <Mouse_Male_Canc> (69)
1

>  <Mouse_Male_NTP> (69)
NE

>  <ChemName> (69)
Tris(2-Ethylhexyl)phosphate

>  <Rat_Male_NTP> (69)
EE

>  <Reference> (69)
NTP274

>  <Formula> (69)
C24H51O4P

>  <SMILES> (69)
O=P(OCC(CCCC)CC)(OCC(CCCC)CC)OCC(CCCC)CC

>  <Rat_Female_NTP> (69)
NE

>  <CAS> (69)
78-42-2

>  <Mouse_Female_NTP> (69)
SE

>  <Synonyms> (69)
2-ethyl-1-hexanol phosphate; 2-Ethylhexanol, phosphate triester; disflamoll tof; flexol tof; kronitex tof; Phosphoric acid, tris(2-ethylhexyl) ester; TOF; triethylhexyl phosphate; Trioctyl phosphate.

$$$$
70


 20 20  0  0  0  0  0  0  0  0999 V2000
    3.7651  -23.0818    0.0002 C   0  0  0  0  0  0  0  0  0  0  0  0
    3.7639  -24.4132   -0.0003 C   0  0  0  0  0  0  0  0  0  0  0  0
    6.1840  -24.4816   -0.0002 C   0  0  0  0  0  0  0  0  0  0  0  0
    6.1856  -23.0181    0.0001 C   0  0  0  0  0  0  0  0  0  0  0  0
    5.0307  -25.1454   -0.0001 C   0  0  0  0  0  0  0  0  0  0  0  0
    5.0333  -22.3515    0.0002 C   0  0  0  0  0  0  0  0  0  0  0  0
    5.0338  -20.9543   -0.0008 N   0  0  0  0  0  0  0  0  0  0  0  0
    7.4871  -22.2676   -0.0003 C   0  0  0  0  0  0  0  0  0  0  0  0
    2.4658  -22.3304   -0.0002 C   0  0  0  0  0  0  0  0  0  0  0  0
    2.8975  -24.9125   -0.0009 H   0  0  0  0  0  0  0  0  0  0  0  0
    7.0494  -24.9827   -0.0004 H   0  0  0  0  0  0  0  0  0  0  0  0
    5.0298  -26.1454    0.0000 H   0  0  0  0  0  0  0  0  0  0  0  0
    5.9000  -20.4546   -0.0009 H   0  0  0  0  0  0  0  0  0  0  0  0
    4.1680  -20.4540   -0.0015 H   0  0  0  0  0  0  0  0  0  0  0  0
    7.3053  -21.2843   -0.0000 H   0  0  0  0  0  0  0  0  0  0  0  0
    8.0113  -22.5090   -0.8170 H   0  0  0  0  0  0  0  0  0  0  0  0
    8.0120  -22.5093    0.8158 H   0  0  0  0  0  0  0  0  0  0  0  0
    2.6488  -21.3473    0.0004 H   0  0  0  0  0  0  0  0  0  0  0  0
    1.9405  -22.5716    0.8158 H   0  0  0  0  0  0  0  0  0  0  0  0
    1.9414  -22.5709   -0.8170 H   0  0  0  0  0  0  0  0  0  0  0  0
  1  2  2  0  0  0  0
  3  4  1  0  0  0  0
  1  6  1  0  0  0  0
  2  5  1  0  0  0  0
  5  3  2  0  0  0  0
  4  6  2  0  0  0  0
  6  7  1  0  0  0  0
  4  8  1  0  0  0  0
  1  9  1  0  0  0  0
  2 10  1  0  0  0  0
  3 11  1  0  0  0  0
  5 12  1  0  0  0  0
  7 13  1  0  0  0  0
  7 14  1  0  0  0  0
  8 15  1  0  0  0  0
  8 16  1  0  0  0  0
  8 17  1  0  0  0  0
  9 18  1  0  0  0  0
  9 19  1  0  0  0  0
  9 20  1  0  0  0  0
M  END
>  <Substance ID> (70)
70

>  <Mouse_Female_Canc> (70)
ND

>  <SAL> (70)
1

>  <Rat_Male_Canc> (70)
3

>  <TD50_Rat> (70)
ND

>  <TD50_Mouse> (70)
ND

>  <Rat_Female_Canc> (70)
3

>  <Canc> (70)
3

>  <MolWeight> (70)
121.18

>  <Mouse_Male_Canc> (70)
ND

>  <Mouse_Male_NTP> (70)
ND

>  <ChemName> (70)
2,6-Xylidine

>  <Rat_Male_NTP> (70)
CE

>  <Reference> (70)
NTP278

>  <Formula> (70)
C8H11N

>  <SMILES> (70)
Nc(c(ccc1)C)c1C

>  <Rat_Female_NTP> (70)
CE

>  <CAS> (70)
87-62-7

>  <Mouse_Female_NTP> (70)
ND

>  <Synonyms> (70)
1-amino-2,6-dimethylbenzene; 2,6-Dimethylaniline; 2-amino-1,3-dimethylbenzene; o-Xylidine; DMA; Xylylamine.

$$$$
71


 45 46  0  0  0  0  0  0  0  0999 V2000
    3.1319  -32.2841   -0.0719 C   0  0  0  0  0  0  0  0  0  0  0  0
    3.1682  -33.7139    0.1164 C   0  0  0  0  0  0  0  0  0  0  0  0
    4.3338  -34.3444    0.2030 C   0  0  0  0  0  0  0  0  0  0  0  0
    5.6126  -33.6245    0.1091 C   0  0  0  0  0  0  0  0  0  0  0  0
    5.5856  -32.2655   -0.0364 C   0  0  0  0  0  0  0  0  0  0  0  0
    4.2606  -31.5893   -0.1463 C   0  0  0  0  0  0  0  0  0  0  0  0
    6.7975  -31.3613   -0.0909 C   0  0  0  0  0  0  0  0  0  0  0  0
    9.1459  -30.8714    0.2159 C   0  0  2  0  0  0  0  0  0  0  0  0
   10.4038  -31.5619    0.7563 C   0  0  0  0  0  0  0  0  0  0  0  0
   11.5834  -31.2552   -0.1753 C   0  0  0  0  0  0  0  0  0  0  0  0
   12.8546  -32.1416    0.1220 C   0  0  0  0  0  0  0  0  0  0  0  0
    6.8463  -34.5218    0.1584 C   0  0  0  0  0  0  0  0  0  0  0  0
    7.9800  -34.2921   -0.5129 C   0  0  0  0  0  0  0  0  0  0  0  0
    9.2010  -35.1699   -0.3529 C   0  0  0  0  0  0  0  0  0  0  0  0
   10.4089  -34.3480   -0.8666 C   0  0  0  0  0  0  0  0  0  0  0  0
   11.7013  -34.7854   -0.1475 C   0  0  0  0  0  0  0  0  0  0  0  0
   12.8901  -33.7454    0.0045 C   0  0  0  0  0  0  0  0  0  0  0  0
   14.0119  -34.2491    0.1264 O   0  0  0  0  0  0  0  0  0  0  0  0
    6.6817  -30.2409   -0.5960 O   0  0  0  0  0  0  0  0  0  0  0  0
    1.9807  -34.4318    0.2061 O   0  0  0  0  0  0  0  0  0  0  0  0
    8.0326  -31.7695    0.4455 O   0  0  0  0  0  0  0  0  0  0  0  0
    4.1813  -30.2077   -0.3123 O   0  0  0  0  0  0  0  0  0  0  0  0
    9.0258  -29.4519    0.8240 C   0  0  0  0  0  0  0  0  0  0  0  0
    2.2524  -31.8141   -0.1467 H   0  0  0  0  0  0  0  0  0  0  0  0
    4.3421  -35.3355    0.3358 H   0  0  0  0  0  0  0  0  0  0  0  0
    9.1740  -30.7036   -0.7695 H   0  0  0  0  0  0  0  0  0  0  0  0
   10.6047  -31.2208    1.6745 H   0  0  0  0  0  0  0  0  0  0  0  0
   10.2539  -32.5499    0.7926 H   0  0  0  0  0  0  0  0  0  0  0  0
   11.2948  -31.4193   -1.1185 H   0  0  0  0  0  0  0  0  0  0  0  0
   11.8337  -30.2933   -0.0653 H   0  0  0  0  0  0  0  0  0  0  0  0
   13.5652  -31.8102   -0.4986 H   0  0  0  0  0  0  0  0  0  0  0  0
   13.1125  -31.9348    1.0658 H   0  0  0  0  0  0  0  0  0  0  0  0
    6.8039  -35.3391    0.7331 H   0  0  0  0  0  0  0  0  0  0  0  0
    8.0216  -33.5148   -1.1407 H   0  0  0  0  0  0  0  0  0  0  0  0
    9.3305  -35.4082    0.6096 H   0  0  0  0  0  0  0  0  0  0  0  0
    9.0979  -36.0054   -0.8927 H   0  0  0  0  0  0  0  0  0  0  0  0
   10.5132  -34.4953   -1.8502 H   0  0  0  0  0  0  0  0  0  0  0  0
   10.2460  -33.3773   -0.6899 H   0  0  0  0  0  0  0  0  0  0  0  0
   11.4408  -35.0687    0.7755 H   0  0  0  0  0  0  0  0  0  0  0  0
   12.0629  -35.5717   -0.6484 H   0  0  0  0  0  0  0  0  0  0  0  0
    2.1861  -35.4020    0.3346 H   0  0  0  0  0  0  0  0  0  0  0  0
    5.1034  -29.8228   -0.3512 H   0  0  0  0  0  0  0  0  0  0  0  0
    9.8458  -28.9239    0.6036 H   0  0  0  0  0  0  0  0  0  0  0  0
    8.9314  -29.5211    1.8171 H   0  0  0  0  0  0  0  0  0  0  0  0
    8.2224  -28.9931    0.4443 H   0  0  0  0  0  0  0  0  0  0  0  0
  1  6  2  0  0  0  0
  1  2  1  0  0  0  0
  2  3  2  0  0  0  0
  3  4  1  0  0  0  0
  4  5  2  0  0  0  0
  5  6  1  0  0  0  0
  5  7  1  0  0  0  0
  7 21  1  0  0  0  0
 21  8  1  0  0  0  0
  8  9  1  0  0  0  0
  9 10  1  0  0  0  0
 10 11  1  0  0  0  0
 11 17  1  0  0  0  0
  4 12  1  0  0  0  0
 12 13  2  0  0  0  0
 13 14  1  0  0  0  0
 14 15  1  0  0  0  0
 15 16  1  0  0  0  0
 16 17  1  0  0  0  0
 17 18  2  0  0  0  0
  7 19  2  0  0  0  0
  2 20  1  0  0  0  0
  6 22  1  0  0  0  0
  8 23  1  0  0  0  0
  1 24  1  0  0  0  0
  3 25  1  0  0  0  0
  8 26  1  0  0  0  0
  9 27  1  0  0  0  0
  9 28  1  0  0  0  0
 10 29  1  0  0  0  0
 10 30  1  0  0  0  0
 11 31  1  0  0  0  0
 11 32  1  0  0  0  0
 12 33  1  0  0  0  0
 13 34  1  0  0  0  0
 14 35  1  0  0  0  0
 14 36  1  0  0  0  0
 15 37  1  0  0  0  0
 15 38  1  0  0  0  0
 16 39  1  0  0  0  0
 16 40  1  0  0  0  0
 20 41  1  0  0  0  0
 22 42  1  0  0  0  0
 23 43  1  0  0  0  0
 23 44  1  0  0  0  0
 23 45  1  0  0  0  0
M  END
>  <Substance ID> (71)
71

>  <Mouse_Female_Canc> (71)
3

>  <SAL> (71)
1

>  <Rat_Male_Canc> (71)
1

>  <TD50_Rat> (71)
NP

>  <TD50_Mouse> (71)
39

>  <Rat_Female_Canc> (71)
1

>  <Canc> (71)
3

>  <MolWeight> (71)
318.37

>  <Mouse_Male_Canc> (71)
3

>  <Mouse_Male_NTP> (71)
ND

>  <ChemName> (71)
Zearalenone

>  <Rat_Male_NTP> (71)
ND

>  <Reference> (71)
NTP235

>  <Formula> (71)
C18H22O5

>  <SMILES> (71)
OC1=CC(=CC2=C1C(=O)O[C@H](CCCC(=O)CCC/C=C\2)C)O

>  <Rat_Female_NTP> (71)
ND

>  <CAS> (71)
17924-92-4

>  <Mouse_Female_NTP> (71)
ND

>  <Synonyms> (71)
(10S)-zearalenone; 3,4,5,6,9,10-hexahydro-14,16-dihydroxy-3-methyl-1H-2-benzoxacyclotetradecin-1,7(8H)dione; (-)-(3S,11E)-3,4,5,6,9,10-hexahydro-14,16-dihydroxy-3-methyl-1H-2-benzoxacyclotetradecin-1,7(8H)-dione; 6-(10-hydroxy-6-oxo-trans-1-undecenyl)-beta-resorcylic acid lactone; 6-(10-hydroxy-6-oxo-trans-1-undecenyl)-beta-resorcylic acid N-lactone; benzoxacyclotetradecin-1,7(8H)-dione; Compound F-2; (E)-3,4,5,6,7,8,9,10-octahydro-14,16-dihydroxy-3-methyl-7-oxo-1H-2-benzoxacyclotetradecin-1-one; f-2 toxin; fermentation estrogenic substance; FES; fusarium toxin; mycotoxin f2; ntoxin f2; (S)-(-)-3,4,5,6,9,10-hexahydro-14,16-dihydroxy-3-methyl-1H-2-benzoxacyclotetradecin-1,7(8H)-dione; [S-(E)]-3,4,5,6,9,10-hexahydro-14,16-dihydroxy-3-methyl-1H-2-benzoxacyclotetradecin-1,7(8H)-dione; (S)-Zearalenone; trans-14,16-dihydroxy-3-methyl-7-oxobenzoxacyclotetradec-11-en-1-one; trans-6-(10-hydroxy-6-oxo-1-undecenyl)resorcylic acid mu-lactone; trans-zearalenone; (-)-zearalenone.

$$$$
72


 43 44  0  0  0  0  0  0  0  0999 V2000
    7.2782  -42.8584    0.0412 O   0  0  0  0  0  0  0  0  0  0  0  0
    8.3405  -41.9020   -0.0463 C   0  0  0  0  0  0  0  0  0  0  0  0
    9.6622  -42.6927    0.0619 C   0  0  0  0  0  0  0  0  0  0  0  0
   10.8892  -41.7813   -0.0393 C   0  0  0  0  0  0  0  0  0  0  0  0
   12.1567  -42.6594    0.0341 C   0  0  0  0  0  0  0  0  0  0  0  0
    6.0373  -42.3013   -0.1566 C   0  0  0  0  0  0  0  0  0  0  0  0
    5.9558  -41.0836   -0.3592 O   0  0  0  0  0  0  0  0  0  0  0  0
    2.3409  -43.0869   -0.1908 C   0  0  0  0  0  0  0  0  0  0  0  0
    2.2700  -44.3836    0.0908 C   0  0  0  0  0  0  0  0  0  0  0  0
    4.6941  -44.5974    0.1791 C   0  0  0  0  0  0  0  0  0  0  0  0
    4.7741  -43.1018   -0.1109 C   0  0  0  0  0  0  0  0  0  0  0  0
    3.4893  -45.1608    0.2899 C   0  0  0  0  0  0  0  0  0  0  0  0
    3.6397  -42.4244   -0.2798 C   0  0  0  0  0  0  0  0  0  0  0  0
    5.8633  -45.4929    0.3897 C   0  0  0  0  0  0  0  0  0  0  0  0
    7.1402  -45.1750   -0.0873 O   0  0  0  0  0  0  0  0  0  0  0  0
    5.6753  -46.5501    0.9964 O   0  0  0  0  0  0  0  0  0  0  0  0
    8.2653  -46.0232    0.3363 C   0  0  0  0  0  0  0  0  0  0  0  0
    8.3445  -47.5148    0.0180 C   0  0  0  0  0  0  0  0  0  0  0  0
    7.3438  -48.2184   -0.5140 C   0  0  0  0  0  0  0  0  0  0  0  0
    8.6422  -50.2697   -0.4159 C   0  0  0  0  0  0  0  0  0  0  0  0
    9.7461  -49.4981    0.1444 C   0  0  0  0  0  0  0  0  0  0  0  0
    7.5003  -49.6616   -0.7351 C   0  0  0  0  0  0  0  0  0  0  0  0
    9.6023  -48.1928    0.3507 C   0  0  0  0  0  0  0  0  0  0  0  0
    8.2985  -41.4199   -0.9214 H   0  0  0  0  0  0  0  0  0  0  0  0
    8.2720  -41.2421    0.7020 H   0  0  0  0  0  0  0  0  0  0  0  0
    9.6837  -43.1655    0.9428 H   0  0  0  0  0  0  0  0  0  0  0  0
    9.6976  -43.3642   -0.6783 H   0  0  0  0  0  0  0  0  0  0  0  0
   10.8713  -41.2865   -0.9081 H   0  0  0  0  0  0  0  0  0  0  0  0
   10.8873  -41.1275    0.7173 H   0  0  0  0  0  0  0  0  0  0  0  0
   12.9688  -42.0794   -0.0306 H   0  0  0  0  0  0  0  0  0  0  0  0
   12.1539  -43.3136   -0.7221 H   0  0  0  0  0  0  0  0  0  0  0  0
   12.1698  -43.1546    0.9028 H   0  0  0  0  0  0  0  0  0  0  0  0
    1.5027  -42.5630   -0.3423 H   0  0  0  0  0  0  0  0  0  0  0  0
    1.3777  -44.8287    0.1666 H   0  0  0  0  0  0  0  0  0  0  0  0
    3.4207  -46.1330    0.5134 H   0  0  0  0  0  0  0  0  0  0  0  0
    3.6780  -41.4436   -0.4711 H   0  0  0  0  0  0  0  0  0  0  0  0
    9.0857  -45.6123   -0.0613 H   0  0  0  0  0  0  0  0  0  0  0  0
    8.3054  -45.9512    1.3329 H   0  0  0  0  0  0  0  0  0  0  0  0
    6.4884  -47.7637   -0.7619 H   0  0  0  0  0  0  0  0  0  0  0  0
    8.7422  -51.2541   -0.5603 H   0  0  0  0  0  0  0  0  0  0  0  0
   10.6086  -49.9499    0.3727 H   0  0  0  0  0  0  0  0  0  0  0  0
    6.7471  -50.1901   -1.1267 H   0  0  0  0  0  0  0  0  0  0  0  0
   10.3601  -47.6670    0.7371 H   0  0  0  0  0  0  0  0  0  0  0  0
  1  2  1  0  0  0  0
  2  3  1  0  0  0  0
  3  4  1  0  0  0  0
  4  5  1  0  0  0  0
  6  1  1  0  0  0  0
  6  7  2  0  0  0  0
  8  9  2  0  0  0  0
 10 11  1  0  0  0  0
  8 13  1  0  0  0  0
  9 12  1  0  0  0  0
 12 10  2  0  0  0  0
 11 13  2  0  0  0  0
 11  6  1  0  0  0  0
 10 14  1  0  0  0  0
 14 15  1  0  0  0  0
 14 16  2  0  0  0  0
 15 17  1  0  0  0  0
 17 18  1  0  0  0  0
 18 19  2  0  0  0  0
 20 21  1  0  0  0  0
 18 23  1  0  0  0  0
 19 22  1  0  0  0  0
 22 20  2  0  0  0  0
 21 23  2  0  0  0  0
  2 24  1  0  0  0  0
  2 25  1  0  0  0  0
  3 26  1  0  0  0  0
  3 27  1  0  0  0  0
  4 28  1  0  0  0  0
  4 29  1  0  0  0  0
  5 30  1  0  0  0  0
  5 31  1  0  0  0  0
  5 32  1  0  0  0  0
  8 33  1  0  0  0  0
  9 34  1  0  0  0  0
 12 35  1  0  0  0  0
 13 36  1  0  0  0  0
 17 37  1  0  0  0  0
 17 38  1  0  0  0  0
 19 39  1  0  0  0  0
 20 40  1  0  0  0  0
 21 41  1  0  0  0  0
 22 42  1  0  0  0  0
 23 43  1  0  0  0  0
M  END
>  <Substance ID> (72)
72

>  <Mouse_Female_Canc> (72)
1

>  <SAL> (72)
1

>  <Rat_Male_Canc> (72)
3

>  <TD50_Rat> (72)
ND

>  <TD50_Mouse> (72)
NP

>  <Rat_Female_Canc> (72)
2

>  <Canc> (72)
3

>  <MolWeight> (72)
312.36

>  <Mouse_Male_Canc> (72)
1

>  <Mouse_Male_NTP> (72)
ND

>  <ChemName> (72)
Butyl Benzyl Phthalate

>  <Rat_Male_NTP> (72)
SE

>  <Reference> (72)
NTP458 & CPDB

>  <Formula> (72)
C19H20O4

>  <SMILES> (72)
C1(=C(C=CC=C1)C(OCCCC)=O)C(OCC2=CC=CC=C2)=O

>  <Rat_Female_NTP> (72)
EE

>  <CAS> (72)
85-68-7

>  <Mouse_Female_NTP> (72)
ND

>  <Synonyms> (72)
1,2-Benzenedicarboxylic acid butyl phenylmethyl ester; BBP; Benzyl butyl phthalate; benzyl n-butyl phthalate; butyl phenylmethyl 1,2-benzenedicarboxylate; n-Butyl Benzyl Phthalate; palatinol bb; santicizer 160; sicol 160; unimoll bb.

$$$$
73


 32 32  0  0  0  0  0  0  0  0999 V2000
    4.4444  -65.7010   -0.0998 C   0  0  0  0  0  0  0  0  0  0  0  0
    4.4171  -67.0207    0.0444 C   0  0  0  0  0  0  0  0  0  0  0  0
    6.8479  -67.1666    0.0647 C   0  0  0  0  0  0  0  0  0  0  0  0
    6.8796  -65.6499   -0.0775 C   0  0  0  0  0  0  0  0  0  0  0  0
    5.6628  -67.7745    0.1261 C   0  0  0  0  0  0  0  0  0  0  0  0
    5.7197  -64.9968   -0.1577 C   0  0  0  0  0  0  0  0  0  0  0  0
    8.1012  -64.7973   -0.1179 C   0  0  0  0  0  0  0  0  0  0  0  0
    8.0346  -68.0583    0.1274 C   0  0  0  0  0  0  0  0  0  0  0  0
    7.9507  -63.5805   -0.2758 O   0  0  0  0  0  0  0  0  0  0  0  0
    7.8459  -69.2666    0.3106 O   0  0  0  0  0  0  0  0  0  0  0  0
    9.3796  -65.2829    0.0322 O   0  0  0  0  0  0  0  0  0  0  0  0
    9.3211  -67.6108   -0.0333 O   0  0  0  0  0  0  0  0  0  0  0  0
   10.2544  -68.6871    0.0687 C   0  0  0  0  0  0  0  0  0  0  0  0
   11.6323  -68.1437   -0.1680 C   0  0  0  0  0  0  0  0  0  0  0  0
   10.3310  -64.2156   -0.0457 C   0  0  0  0  0  0  0  0  0  0  0  0
   11.7115  -64.7729    0.1429 C   0  0  0  0  0  0  0  0  0  0  0  0
   12.7788  -63.9872    0.0278 C   0  0  0  0  0  0  0  0  0  0  0  0
   12.7049  -68.9046    0.0301 C   0  0  0  0  0  0  0  0  0  0  0  0
    3.5883  -65.1890   -0.1688 H   0  0  0  0  0  0  0  0  0  0  0  0
    3.5403  -67.4988    0.0971 H   0  0  0  0  0  0  0  0  0  0  0  0
    5.6274  -68.7684    0.2304 H   0  0  0  0  0  0  0  0  0  0  0  0
    5.7247  -64.0020   -0.2598 H   0  0  0  0  0  0  0  0  0  0  0  0
   10.2037  -69.0925    0.9814 H   0  0  0  0  0  0  0  0  0  0  0  0
   10.0435  -69.3830   -0.6178 H   0  0  0  0  0  0  0  0  0  0  0  0
   11.7456  -67.1998   -0.4780 H   0  0  0  0  0  0  0  0  0  0  0  0
   10.2674  -63.7753   -0.9413 H   0  0  0  0  0  0  0  0  0  0  0  0
   10.1403  -63.5443    0.6705 H   0  0  0  0  0  0  0  0  0  0  0  0
   11.8301  -65.7426    0.3569 H   0  0  0  0  0  0  0  0  0  0  0  0
   13.6952  -64.3668    0.1551 H   0  0  0  0  0  0  0  0  0  0  0  0
   12.6648  -63.0170   -0.1860 H   0  0  0  0  0  0  0  0  0  0  0  0
   13.6188  -68.5320   -0.1309 H   0  0  0  0  0  0  0  0  0  0  0  0
   12.5975  -69.8493    0.3399 H   0  0  0  0  0  0  0  0  0  0  0  0
  1  2  2  0  0  0  0
  3  4  1  0  0  0  0
  1  6  1  0  0  0  0
  2  5  1  0  0  0  0
  5  3  2  0  0  0  0
  4  6  2  0  0  0  0
  4  7  1  0  0  0  0
  3  8  1  0  0  0  0
  7  9  2  0  0  0  0
  8 10  2  0  0  0  0
  7 11  1  0  0  0  0
  8 12  1  0  0  0  0
 12 13  1  0  0  0  0
 13 14  1  0  0  0  0
 11 15  1  0  0  0  0
 15 16  1  0  0  0  0
 16 17  2  0  0  0  0
 14 18  2  0  0  0  0
  1 19  1  0  0  0  0
  2 20  1  0  0  0  0
  5 21  1  0  0  0  0
  6 22  1  0  0  0  0
 13 23  1  0  0  0  0
 13 24  1  0  0  0  0
 14 25  1  0  0  0  0
 15 26  1  0  0  0  0
 15 27  1  0  0  0  0
 16 28  1  0  0  0  0
 17 29  1  0  0  0  0
 17 30  1  0  0  0  0
 18 31  1  0  0  0  0
 18 32  1  0  0  0  0
M  END
>  <Substance ID> (73)
73

>  <Mouse_Female_Canc> (73)
2

>  <SAL> (73)
1

>  <Rat_Male_Canc> (73)
1

>  <TD50_Rat> (73)
NP

>  <TD50_Mouse> (73)
NP

>  <Rat_Female_Canc> (73)
2

>  <Canc> (73)
2

>  <MolWeight> (73)
246.26

>  <Mouse_Male_Canc> (73)
2

>  <Mouse_Male_NTP> (73)
EE

>  <ChemName> (73)
Diallyl Phthalate

>  <Rat_Male_NTP> (73)
NE

>  <Reference> (73)
NTP284 & NTP242

>  <Formula> (73)
C14H14O4

>  <SMILES> (73)
O=C(C1=C(C=CC=C1)C(=O)OCC=C)OCC=C

>  <Rat_Female_NTP> (73)
EE

>  <CAS> (73)
131-17-9

>  <Mouse_Female_NTP> (73)
EE

>  <Synonyms> (73)
1,2-Benzenedicarboxylic acid, di-2-propenyl ester; o-phthalic acid diallyl ester; Allyl Phthalate; diallylester phthalic acid; DAP; dapon 35; dapon r.

$$$$
74


 24 24  0  0  0  0  0  0  0  0999 V2000
    3.4200  -75.5756   -0.0019 C   0  0  0  0  0  0  0  0  0  0  0  0
    3.6053  -76.8938    0.0203 C   0  0  0  0  0  0  0  0  0  0  0  0
    6.0121  -76.6230    0.0091 C   0  0  0  0  0  0  0  0  0  0  0  0
    5.8094  -75.1680   -0.0124 C   0  0  0  0  0  0  0  0  0  0  0  0
    4.9617  -77.4431    0.0236 C   0  0  0  0  0  0  0  0  0  0  0  0
    4.5744  -74.6736   -0.0189 C   0  0  0  0  0  0  0  0  0  0  0  0
    4.3835  -73.2985   -0.0413 O   0  0  0  0  0  0  0  0  0  0  0  0
    5.1647  -78.9306    0.0407 C   0  0  0  0  0  0  0  0  0  0  0  0
    6.8986  -74.2881   -0.0246 O   0  0  0  0  0  0  0  0  0  0  0  0
    8.1382  -75.0030   -0.0068 C   0  0  0  0  0  0  0  0  0  0  0  0
    6.6324  -79.2439    0.0084 C   0  0  0  0  0  0  0  0  0  0  0  0
    7.0420  -80.5099    0.0028 C   0  0  0  0  0  0  0  0  0  0  0  0
    2.4928  -75.2011   -0.0069 H   0  0  0  0  0  0  0  0  0  0  0  0
    2.8171  -77.5090    0.0347 H   0  0  0  0  0  0  0  0  0  0  0  0
    6.9390  -76.9983    0.0129 H   0  0  0  0  0  0  0  0  0  0  0  0
    5.2713  -72.8384   -0.0506 H   0  0  0  0  0  0  0  0  0  0  0  0
    4.7624  -79.3110    0.8735 H   0  0  0  0  0  0  0  0  0  0  0  0
    4.7213  -79.3353   -0.7591 H   0  0  0  0  0  0  0  0  0  0  0  0
    8.8984  -74.3534   -0.0160 H   0  0  0  0  0  0  0  0  0  0  0  0
    8.1949  -75.5930   -0.8122 H   0  0  0  0  0  0  0  0  0  0  0  0
    8.1888  -75.5629    0.8203 H   0  0  0  0  0  0  0  0  0  0  0  0
    7.3020  -78.5014   -0.0089 H   0  0  0  0  0  0  0  0  0  0  0  0
    8.0197  -80.7190   -0.0187 H   0  0  0  0  0  0  0  0  0  0  0  0
    6.3723  -81.2523    0.0201 H   0  0  0  0  0  0  0  0  0  0  0  0
  1  2  2  0  0  0  0
  3  4  1  0  0  0  0
  1  6  1  0  0  0  0
  2  5  1  0  0  0  0
  5  3  2  0  0  0  0
  4  6  2  0  0  0  0
  6  7  1  0  0  0  0
  5  8  1  0  0  0  0
  4  9  1  0  0  0  0
  9 10  1  0  0  0  0
  8 11  1  0  0  0  0
 11 12  2  0  0  0  0
  1 13  1  0  0  0  0
  2 14  1  0  0  0  0
  3 15  1  0  0  0  0
  7 16  1  0  0  0  0
  8 17  1  0  0  0  0
  8 18  1  0  0  0  0
 10 19  1  0  0  0  0
 10 20  1  0  0  0  0
 10 21  1  0  0  0  0
 11 22  1  0  0  0  0
 12 23  1  0  0  0  0
 12 24  1  0  0  0  0
M  END
>  <Substance ID> (74)
74

>  <Mouse_Female_Canc> (74)
2

>  <SAL> (74)
1

>  <Rat_Male_Canc> (74)
1

>  <TD50_Rat> (74)
NP

>  <TD50_Mouse> (74)
NP

>  <Rat_Female_Canc> (74)
1

>  <Canc> (74)
2

>  <MolWeight> (74)
164.20

>  <Mouse_Male_Canc> (74)
2

>  <Mouse_Male_NTP> (74)
ND

>  <ChemName> (74)
Eugenol

>  <Rat_Male_NTP> (74)
ND

>  <Reference> (74)
NTP223

>  <Formula> (74)
C10H12O2

>  <SMILES> (74)
OC1=C(C=C(C=C1)CC=C)OC

>  <Rat_Female_NTP> (74)
ND

>  <CAS> (74)
97-53-0

>  <Mouse_Female_NTP> (74)
ND

>  <Synonyms> (74)
1,3,4-eugenol; 1-Allyl-3-methoxy-4-hydroxybenzene; 1-allyl-4-hydroxy-3-methoxybenzene; 1-hydroxy-2-methoxy-4-allylbenzene; 1-hydroxy-2-methoxy-4-prop-2-enylbenzene; 1-hydroxy-2-methoxy-4-propenylbenzene; 1-hydroxy-4-allyl-2-methoxybenzene; 2-methoxy-1-hydroxy-4-allylbenzene; 2-methoxy-4-(2-propen-1-yl)phenol; 2-Methoxy-4-(2-propenyl)phenol; 2-Methoxy-4-allylphenol; 2-methoxy-4-prop-2-enylphenol; 4-allyl-1-hydroxy-2-methoxybenzene; 4-Allyl-2-methoxyphenol; 4-allylcatechol-2-methyl ether; 4-Allylguaiacol; p-eugenol; 4-hydroxy-3-methoxyallylbenzene; 5-allylguaiacol; Allylguaiacol; Caryophyllic acid; Eugenic acid; Eugenol Special; FA 100; fema no. 2467.

$$$$
75


 28 29  0  0  0  0  0  0  0  0999 V2000
    5.7151  -89.6580   -0.0147 C   0  0  0  0  0  0  0  0  0  0
    5.1901  -90.8785    0.0668 C   0  0  0  0  0  0  0  0  0  0
    7.3894  -91.8951    0.0384 C   0  0  0  0  0  0  0  0  0  0
    7.9707  -90.5528   -0.0503 C   0  0  0  0  0  0  0  0  0  0
    6.0676  -92.0502    0.0942 C   0  0  0  0  0  0  0  0  0  0
    7.1663  -89.4899   -0.0760 C   0  0  0  0  0  0  0  0  0  0
    9.4808  -90.4053   -0.1130 C   0  0  2  0  0  0  0  0  0  0
   10.2577  -91.5991    0.0357 O   0  0  0  0  0  0  0  0  0  0
   10.1499  -89.0155   -0.0506 C   0  0  0  0  0  0  0  0  0  0
   11.6177  -88.8387   -0.0163 C   0  0  0  0  0  0  0  0  0  0
   12.4559  -89.8745   -0.0516 C   0  0  0  0  0  0  0  0  0  0
   14.3870  -88.4150    0.0473 C   0  0  0  0  0  0  0  0  0  0
   13.4711  -87.2753    0.0857 C   0  0  0  0  0  0  0  0  0  0
   13.9032  -89.6538   -0.0182 C   0  0  0  0  0  0  0  0  0  0
   12.1557  -87.4777    0.0551 C   0  0  0  0  0  0  0  0  0  0
    9.4556  -87.9935   -0.0316 O   0  0  0  0  0  0  0  0  0  0
    5.1173  -88.8566   -0.0339 H   0  0  0  0  0  0  0  0  0  0
    4.1978  -90.9950    0.1092 H   0  0  0  0  0  0  0  0  0  0
    7.9868  -92.6968    0.0570 H   0  0  0  0  0  0  0  0  0  0
    5.6744  -92.9676    0.1549 H   0  0  0  0  0  0  0  0  0  0
    7.5579  -88.5719   -0.1377 H   0  0  0  0  0  0  0  0  0  0
    9.5785  -90.2439   -1.0950 H   0  0  0  0  0  0  0  0  0  0
   11.2302  -91.3740   -0.0232 H   0  0  0  0  0  0  0  0  0  0
   12.0950  -90.8059   -0.1010 H   0  0  0  0  0  0  0  0  0  0
   15.3752  -88.2641    0.0701 H   0  0  0  0  0  0  0  0  0  0
   13.8329  -86.3444    0.1350 H   0  0  0  0  0  0  0  0  0  0
   14.5285  -90.4338   -0.0446 H   0  0  0  0  0  0  0  0  0  0
   11.5316  -86.6969    0.0811 H   0  0  0  0  0  0  0  0  0  0
  1  2  2  0  0  0
  3  4  1  0  0  0
  1  6  1  0  0  0
  2  5  1  0  0  0
  5  3  2  0  0  0
  4  6  2  0  0  0
  4  7  1  0  0  0
  7  8  1  0  0  0
  7  9  1  0  0  0
  9 10  1  0  0  0
 10 11  2  0  0  0
 12 13  1  0  0  0
 10 15  1  0  0  0
 11 14  1  0  0  0
 14 12  2  0  0  0
 13 15  2  0  0  0
  9 16  2  0  0  0
  1 17  1  0  0  0
  2 18  1  0  0  0
  3 19  1  0  0  0
  5 20  1  0  0  0
  6 21  1  0  0  0
  7 22  1  0  0  0
  8 23  1  0  0  0
 11 24  1  0  0  0
 12 25  1  0  0  0
 13 26  1  0  0  0
 14 27  1  0  0  0
 15 28  1  0  0  0
M  END
>  <Substance ID> (75)
75

>  <Mouse_Female_Canc> (75)
1

>  <SAL> (75)
1

>  <Rat_Male_Canc> (75)
1

>  <TD50_Rat> (75)
NP

>  <TD50_Mouse> (75)
NP

>  <Rat_Female_Canc> (75)
1

>  <Canc> (75)
1

>  <MolWeight> (75)
212.25

>  <Mouse_Male_Canc> (75)
1

>  <Mouse_Male_NTP> (75)
ND

>  <ChemName> (75)
Benzoin

>  <Rat_Male_NTP> (75)
ND

>  <Reference> (75)
NTP204

>  <Formula> (75)
C14H12O2

>  <SMILES> (75)
C1=CC=CC(=C1)C(C(C2=CC=CC=C2)=O)O

>  <Rat_Female_NTP> (75)
ND

>  <CAS> (75)
119-53-9

>  <Mouse_Female_NTP> (75)
ND

>  <Synonyms> (75)
2-Hydroxy-1,2-diphenylethanone; 2-hydroxy-2-phenylacetophenone; Alpha-hydroxy-a-phenylacetophenone; Alpha-hydroxybenzyl phenyl ketone; benzoylphenylcarbinol; bitter almond oil camphor; hydroxy-2-phenyl acetophenone; wy 42956.

$$$$
76


 33 34  0  0  0  0  0  0  0  0999 V2000
   29.9751   -5.1305    0.5563 C   0  0  0  0  0  0  0  0  0  0  0  0
   31.1368   -5.1185   -0.1033 C   0  0  0  0  0  0  0  0  0  0  0  0
   31.1568   -2.6973   -0.1489 C   0  0  0  0  0  0  0  0  0  0  0  0
   29.8836   -2.7097    0.5863 C   0  0  0  0  0  0  0  0  0  0  0  0
   31.7518   -3.8316   -0.4839 C   0  0  0  0  0  0  0  0  0  0  0  0
   29.3158   -3.8739    0.9094 C   0  0  0  0  0  0  0  0  0  0  0  0
   28.0948   -3.8883    1.5808 O   0  0  0  0  0  0  0  0  0  0  0  0
   33.0215   -3.8233   -1.3341 C   0  0  0  0  0  0  0  0  0  0  0  0
   33.0184   -2.5197   -2.1664 C   0  0  0  0  0  0  0  0  0  0  0  0
   33.0189   -5.0986   -2.1955 C   0  0  0  0  0  0  0  0  0  0  0  0
   34.2897   -3.8241   -0.4926 C   0  0  0  0  0  0  0  0  0  0  0  0
   34.8631   -4.9908   -0.1470 C   0  0  0  0  0  0  0  0  0  0  0  0
   36.7366   -3.8484    0.8911 C   0  0  0  0  0  0  0  0  0  0  0  0
   36.1066   -2.5730    0.5299 C   0  0  0  0  0  0  0  0  0  0  0  0
   36.1375   -4.9935    0.5801 C   0  0  0  0  0  0  0  0  0  0  0  0
   34.9463   -2.5659   -0.1211 C   0  0  0  0  0  0  0  0  0  0  0  0
   37.9611   -3.8554    1.5564 O   0  0  0  0  0  0  0  0  0  0  0  0
   29.5549   -6.0019    0.8095 H   0  0  0  0  0  0  0  0  0  0  0  0
   31.5886   -5.9790   -0.3386 H   0  0  0  0  0  0  0  0  0  0  0  0
   31.5769   -1.8246   -0.3979 H   0  0  0  0  0  0  0  0  0  0  0  0
   29.4443   -1.8490    0.8434 H   0  0  0  0  0  0  0  0  0  0  0  0
   27.7908   -2.9492    1.7409 H   0  0  0  0  0  0  0  0  0  0  0  0
   33.8400   -2.4850   -2.7353 H   0  0  0  0  0  0  0  0  0  0  0  0
   33.0058   -1.7311   -1.5515 H   0  0  0  0  0  0  0  0  0  0  0  0
   32.2074   -2.4989   -2.7511 H   0  0  0  0  0  0  0  0  0  0  0  0
   33.8414   -5.1192   -2.7638 H   0  0  0  0  0  0  0  0  0  0  0  0
   32.2089   -5.1038   -2.7819 H   0  0  0  0  0  0  0  0  0  0  0  0
   33.0049   -5.9028   -1.6011 H   0  0  0  0  0  0  0  0  0  0  0  0
   34.4212   -5.8556   -0.3855 H   0  0  0  0  0  0  0  0  0  0  0  0
   36.5492   -1.7099    0.7729 H   0  0  0  0  0  0  0  0  0  0  0  0
   36.5578   -5.8619    0.8432 H   0  0  0  0  0  0  0  0  0  0  0  0
   34.5176   -1.6945   -0.3595 H   0  0  0  0  0  0  0  0  0  0  0  0
   38.2444   -4.7995    1.7244 H   0  0  0  0  0  0  0  0  0  0  0  0
  1  2  2  0  0  0  0
  3  4  1  0  0  0  0
  1  6  1  0  0  0  0
  2  5  1  0  0  0  0
  5  3  2  0  0  0  0
  4  6  2  0  0  0  0
  6  7  1  0  0  0  0
  5  8  1  0  0  0  0
  8  9  1  0  0  0  0
  8 10  1  0  0  0  0
  8 11  1  0  0  0  0
 11 12  2  0  0  0  0
 13 14  1  0  0  0  0
 11 16  1  0  0  0  0
 12 15  1  0  0  0  0
 15 13  2  0  0  0  0
 14 16  2  0  0  0  0
 13 17  1  0  0  0  0
  1 18  1  0  0  0  0
  2 19  1  0  0  0  0
  3 20  1  0  0  0  0
  4 21  1  0  0  0  0
  7 22  1  0  0  0  0
  9 23  1  0  0  0  0
  9 24  1  0  0  0  0
  9 25  1  0  0  0  0
 10 26  1  0  0  0  0
 10 27  1  0  0  0  0
 10 28  1  0  0  0  0
 12 29  1  0  0  0  0
 14 30  1  0  0  0  0
 15 31  1  0  0  0  0
 16 32  1  0  0  0  0
 17 33  1  0  0  0  0
M  END
>  <Substance ID> (76)
76

>  <Mouse_Female_Canc> (76)
1

>  <SAL> (76)
1

>  <Rat_Male_Canc> (76)
2

>  <TD50_Rat> (76)
NP

>  <TD50_Mouse> (76)
NP

>  <Rat_Female_Canc> (76)
2

>  <Canc> (76)
2

>  <MolWeight> (76)
228.29

>  <Mouse_Male_Canc> (76)
2

>  <Mouse_Male_NTP> (76)
ND

>  <ChemName> (76)
Bisphenol A

>  <Rat_Male_NTP> (76)
ND

>  <Reference> (76)
NTP215

>  <Formula> (76)
C15H16O2

>  <SMILES> (76)
CC(C1=CC=C(C=C1)O)(C2=CC=C(C=C2)O)C

>  <Rat_Female_NTP> (76)
ND

>  <CAS> (76)
80-05-7

>  <Mouse_Female_NTP> (76)
ND

>  <Synonyms> (76)
2,2-Bis(4-Hydroxyphenyl)propane; 2,2-Bis(4'-hydroxyphenyl)propane; 2,2-di(4-phenylol)propane; 4,4'-dihydroxy-2,2-diphenylpropane; p,p'-dihydroxydiphenyldimethylmethane; 4,4'-dihydroxydiphenylpropane; 4,4'-dimethylmethylenediphenol; 4,4'-bisphenol a; 4,4[-Isopropylidenediphenol; p,p'-isopropylidenebisphenol; 4,4'-ISOPROPYLIDENEDIPHENOL (BISPHENOL A); beta,beta-di-(p-hydroxyphenyl)propane; bis(4-hydroxyphenyl) dimethylmethane; bis(4-hydroxyphenyl)propane; DIAN; dimethyl bis(p-hydroxyphenyl)methane; dimethylmethylene-p,p'-diphenol; Phenol, 4,4'-(1-methylethylidene)bis-.

$$$$
77


 30 29  0  0  0  0  0  0  0  0999 V2000
    3.9541  -84.1903    0.1427 S   0  0  0  0  0  0  0  0  0  0  0  0
    3.8389  -82.7446    0.5669 O   0  0  0  0  0  0  0  0  0  0  0  0
    2.8002  -84.5482   -0.7834 O   0  0  0  0  0  0  0  0  0  0  0  0
    5.4164  -84.4401   -0.6706 O   0  0  0  0  0  0  0  0  0  0  0  0
    3.9128  -85.1995    1.5078 O   0  5  0  0  0  0  0  0  0  0  0  0
    6.5036  -83.9374    0.1147 C   0  0  0  0  0  0  0  0  0  0  0  0
    7.8670  -84.4747   -0.4063 C   0  0  1  0  0  0  0  0  0  0  0  0
    9.0097  -83.7367    0.3191 C   0  0  0  0  0  0  0  0  0  0  0  0
   10.3615  -84.2424   -0.2271 C   0  0  0  0  0  0  0  0  0  0  0  0
   11.5190  -83.5066    0.4676 C   0  0  0  0  0  0  0  0  0  0  0  0
   12.8574  -84.0275   -0.0890 C   0  0  0  0  0  0  0  0  0  0  0  0
    8.0295  -86.0088   -0.1186 C   0  0  0  0  0  0  0  0  0  0  0  0
    6.9773  -86.8880   -0.8264 C   0  0  0  0  0  0  0  0  0  0  0  0
    6.5065  -82.9386    0.0665 H   0  0  0  0  0  0  0  0  0  0  0  0
    6.3807  -84.2255    1.0644 H   0  0  0  0  0  0  0  0  0  0  0  0
    7.8988  -84.3215   -1.3940 H   0  0  0  0  0  0  0  0  0  0  0  0
    8.9295  -82.7532    0.1569 H   0  0  0  0  0  0  0  0  0  0  0  0
    8.9558  -83.9185    1.3010 H   0  0  0  0  0  0  0  0  0  0  0  0
   10.4420  -85.2240   -0.0538 H   0  0  0  0  0  0  0  0  0  0  0  0
   10.4050  -84.0726   -1.2116 H   0  0  0  0  0  0  0  0  0  0  0  0
   11.4438  -82.5249    0.2930 H   0  0  0  0  0  0  0  0  0  0  0  0
   11.4786  -83.6746    1.4526 H   0  0  0  0  0  0  0  0  0  0  0  0
   13.6135  -83.5516    0.3601 H   0  0  0  0  0  0  0  0  0  0  0  0
   12.8970  -83.8601   -1.0741 H   0  0  0  0  0  0  0  0  0  0  0  0
   12.9318  -85.0094    0.0851 H   0  0  0  0  0  0  0  0  0  0  0  0
    8.9373  -86.2931   -0.4270 H   0  0  0  0  0  0  0  0  0  0  0  0
    7.9510  -86.1549    0.8675 H   0  0  0  0  0  0  0  0  0  0  0  0
    7.1387  -87.8487   -0.6008 H   0  0  0  0  0  0  0  0  0  0  0  0
    7.0481  -86.7621   -1.8160 H   0  0  0  0  0  0  0  0  0  0  0  0
    6.0621  -86.6239   -0.5218 H   0  0  0  0  0  0  0  0  0  0  0  0
  1  2  2  0  0  0  0
  1  3  2  0  0  0  0
  1  4  1  0  0  0  0
  1  5  1  0  0  0  0
  4  6  1  0  0  0  0
  6  7  1  0  0  0  0
  7  8  1  0  0  0  0
  8  9  1  0  0  0  0
  9 10  1  0  0  0  0
 10 11  1  0  0  0  0
  7 12  1  0  0  0  0
 12 13  1  0  0  0  0
  6 14  1  0  0  0  0
  6 15  1  0  0  0  0
  7 16  1  0  0  0  0
  8 17  1  0  0  0  0
  8 18  1  0  0  0  0
  9 19  1  0  0  0  0
  9 20  1  0  0  0  0
 10 21  1  0  0  0  0
 10 22  1  0  0  0  0
 11 23  1  0  0  0  0
 11 24  1  0  0  0  0
 11 25  1  0  0  0  0
 12 26  1  0  0  0  0
 12 27  1  0  0  0  0
 13 28  1  0  0  0  0
 13 29  1  0  0  0  0
 13 30  1  0  0  0  0
M  END
>  <Substance ID> (77)
77

>  <Mouse_Female_Canc> (77)
3

>  <SAL> (77)
1

>  <Rat_Male_Canc> (77)
1

>  <TD50_Rat> (77)
NP

>  <TD50_Mouse> (77)
ND

>  <Rat_Female_Canc> (77)
1

>  <Canc> (77)
3

>  <MolWeight> (77)
232.27

>  <Mouse_Male_Canc> (77)
1

>  <Mouse_Male_NTP> (77)
ND

>  <ChemName> (77)
Sodium 2-Ethylhexyl Sulfate

>  <Rat_Male_NTP> (77)
ND

>  <Reference> (77)
Toxnet

>  <Formula> (77)
C8H17O4SNa

>  <SMILES> (77)
CCCCC(CC)COS(O[Na])(=O)=O

>  <Rat_Female_NTP> (77)
ND

>  <CAS> (77)
126-92-1

>  <Mouse_Female_NTP> (77)
ND

>  <Synonyms> (77)
08-union carbide; emcol d 5-10; emersal 6465; nia proof 08; pentrone on; propaste 6708; sipex bos; 2-ethyl-1-hexanol hydrogen sulfate sodium salt; 2-ethyl-1-hexanol sulfate sodium salt; Sodium (2-Ethylhexyl)Alcohol Sulfate; Sodium etasulfate; sodium ethasulfate; mono(2-ethylhexyl)sulfate sodium salt; Sulfuric acid, mono(2-ethylhexyl) ester, sodium salt; sole tege ts-25; sulfirol 8; tergemist; tergimist; tergitol 08; tergitol anionic 08.

$$$$
78


 19 19  0  0  0  0  0  0  0  0999 V2000
   34.1192  -10.0988    0.4602 C   0  0  0  0  0  0  0  0  0  0  0  0
   33.2059  -10.6208   -0.6422 C   0  0  0  0  0  0  0  0  0  0  0  0
   32.5593  -11.9330   -0.1995 C   0  0  0  0  0  0  0  0  0  0  0  0
   35.4862  -10.5618    0.1628 N   0  0  0  0  0  0  0  0  0  0  0  0
   35.8327  -11.9528   -0.1037 C   0  0  0  0  0  0  0  0  0  0  0  0
   34.8505  -13.1204   -0.0605 C   0  0  0  0  0  0  0  0  0  0  0  0
   33.5129  -12.8140    0.6322 C   0  0  0  0  0  0  0  0  0  0  0  0
   36.2389   -9.8602    0.1303 H   0  0  0  0  0  0  0  0  0  0  0  0
   37.0105  -12.2059   -0.3788 O   0  0  0  0  0  0  0  0  0  0  0  0
   34.0943   -9.0992    0.4787 H   0  0  0  0  0  0  0  0  0  0  0  0
   33.8232  -10.4565    1.3459 H   0  0  0  0  0  0  0  0  0  0  0  0
   32.4923   -9.9457   -0.8296 H   0  0  0  0  0  0  0  0  0  0  0  0
   33.7425  -10.7781   -1.4712 H   0  0  0  0  0  0  0  0  0  0  0  0
   31.7539  -11.7220    0.3544 H   0  0  0  0  0  0  0  0  0  0  0  0
   32.2806  -12.4429   -1.0133 H   0  0  0  0  0  0  0  0  0  0  0  0
   34.6568  -13.3985   -1.0013 H   0  0  0  0  0  0  0  0  0  0  0  0
   35.2873  -13.8760    0.4277 H   0  0  0  0  0  0  0  0  0  0  0  0
   33.0526  -13.6809    0.8231 H   0  0  0  0  0  0  0  0  0  0  0  0
   33.7060  -12.3420    1.4924 H   0  0  0  0  0  0  0  0  0  0  0  0
  1  2  1  0  0  0  0
  2  3  1  0  0  0  0
  1  4  1  0  0  0  0
  5  6  1  0  0  0  0
  6  7  1  0  0  0  0
  7  3  1  0  0  0  0
  4  5  1  0  0  0  0
  4  8  1  0  0  0  0
  5  9  2  0  0  0  0
  1 10  1  0  0  0  0
  1 11  1  0  0  0  0
  2 12  1  0  0  0  0
  2 13  1  0  0  0  0
  3 14  1  0  0  0  0
  3 15  1  0  0  0  0
  6 16  1  0  0  0  0
  6 17  1  0  0  0  0
  7 18  1  0  0  0  0
  7 19  1  0  0  0  0
M  END
>  <Substance ID> (78)
78

>  <Mouse_Female_Canc> (78)
1

>  <SAL> (78)
1

>  <Rat_Male_Canc> (78)
1

>  <TD50_Rat> (78)
NP

>  <TD50_Mouse> (78)
NP

>  <Rat_Female_Canc> (78)
1

>  <Canc> (78)
1

>  <MolWeight> (78)
113.16

>  <Mouse_Male_Canc> (78)
1

>  <Mouse_Male_NTP> (78)
ND

>  <ChemName> (78)
Caprolactam

>  <Rat_Male_NTP> (78)
ND

>  <Reference> (78)
NTP214

>  <Formula> (78)
C6H11NO

>  <SMILES> (78)
O=C1CCCCCN1

>  <Rat_Female_NTP> (78)
ND

>  <CAS> (78)
105-60-2

>  <Mouse_Female_NTP> (78)
ND

>  <Synonyms> (78)
1,6-hexolactam; 2-azacycloheptanone; 2H-azepin-7-one,hexahydro; 2-ketohexamethylenimine; 2-oxohexamethylenimine; 2-perhydroazepinone; 6-aminohexanoic acid cyclic lactam; 6-aminocaproic acid lactam; 6-amino-hexanoic acid lactam; 6-hexanelactam; 6-caprolactam; aminocaproic lactam; cyclohexanone iso-oxime; E-caprolactum; epsilon-Caprolactam; Hexahydro-2-azepinone; hexahydro-2H-Azepin-2-one; hexannic acid; hexanolactam; hexanone isoxime; Perhydroazepin-2-one; -Caprolactam; omega-caprolactum.

$$$$
79


  9  8  0  0  0  0  0  0  0  0999 V2000
   34.7683  -19.4132    0.0005 O   0  0  0  0  0  0  0  0  0  0  0  0
   35.9629  -18.6273   -0.0003 C   0  0  0  0  0  0  0  0  0  0  0  0
   37.1901  -19.5575    0.0008 C   0  0  0  0  0  0  0  0  0  0  0  0
   38.6662  -18.5864   -0.0003 Cl  0  0  0  0  0  0  0  0  0  0  0  0
   33.9714  -18.8092   -0.0002 H   0  0  0  0  0  0  0  0  0  0  0  0
   35.9822  -18.0514   -0.8176 H   0  0  0  0  0  0  0  0  0  0  0  0
   35.9821  -18.0495    0.8157 H   0  0  0  0  0  0  0  0  0  0  0  0
   37.1708  -20.1335    0.8181 H   0  0  0  0  0  0  0  0  0  0  0  0
   37.1709  -20.1353   -0.8152 H   0  0  0  0  0  0  0  0  0  0  0  0
  1  2  1  0  0  0  0
  2  3  1  0  0  0  0
  3  4  1  0  0  0  0
  1  5  1  0  0  0  0
  2  6  1  0  0  0  0
  2  7  1  0  0  0  0
  3  8  1  0  0  0  0
  3  9  1  0  0  0  0
M  END
>  <Substance ID> (79)
79

>  <Mouse_Female_Canc> (79)
1

>  <SAL> (79)
3

>  <Rat_Male_Canc> (79)
1

>  <TD50_Rat> (79)
NP

>  <TD50_Mouse> (79)
NP

>  <Rat_Female_Canc> (79)
1

>  <Canc> (79)
1

>  <MolWeight> (79)
80.51

>  <Mouse_Male_Canc> (79)
1

>  <Mouse_Male_NTP> (79)
NE

>  <ChemName> (79)
2-Chloroethanol 

>  <Rat_Male_NTP> (79)
NE

>  <Reference> (79)
NTP275

>  <Formula> (79)
C2H5Cl1O1 

>  <SMILES> (79)
OCCCl

>  <Rat_Female_NTP> (79)
NE

>  <CAS> (79)
107-07-3

>  <Mouse_Female_NTP> (79)
NE

>  <Synonyms> (79)
2-Chloro-1-ethanol; 2-monochloroethanol; beta-chloroethyl alcohol; Chloroethanol; delta-chloroethanol; ethylene chlorohydrin; ethylene glycol, chlorohydrin; Glycol chlorohydrin; glycol monochlorohydrin; glycomonochlorohydrin.

$$$$
80
 

 37 39  0  0  0  0  0  0  0  0999 V2000
   17.2071  -15.7199    0.2575 O   0  0  0  0  0  0  0  0  0  1  0  0
   18.4414  -16.3621    0.2008 C   0  0  0  0  0  0  0  0  0  2  0  0
   18.4547  -17.8326    0.2602 C   0  0  0  0  0  0  0  0  0  3  0  0
   19.5880  -18.5260    0.2302 C   0  0  0  0  0  0  0  0  0  4  0  0
   20.8587  -17.8432    0.1240 C   0  0  0  0  0  0  0  0  0  5  0  0
   21.9812  -18.5556    0.0924 C   0  0  0  0  0  0  0  0  0  6  0  0
   23.2605  -17.8867   -0.0289 C   0  0  0  0  0  0  0  0  0  7  0  0
   23.3087  -16.5631   -0.1197 C   0  0  0  0  0  0  0  0  0  8  0  0
   22.0814  -15.7632   -0.0881 C   0  0  0  0  0  0  0  0  0  9  0  0
   20.8897  -16.3791    0.0409 C   0  0  0  0  0  0  0  0  0 10  0  0
   19.5798  -15.6544    0.1009 C   0  0  0  0  0  0  0  0  0 11  0  0
   19.5254  -14.2449    0.0638 N   0  0  0  0  0  0  0  0  0 12  0  0
   18.4640  -13.6623    0.0745 N   0  0  0  0  0  0  0  0  0 13  0  0
   18.3993  -12.2666    0.0524 C   0  0  0  0  0  0  0  0  0 14  0  0
   19.6238  -11.4655    0.0715 C   0  0  0  0  0  0  0  0  0 15  0  0
   19.5527  -10.1360    0.0467 C   0  0  0  0  0  0  0  0  0 16  0  0
   18.2471   -9.4734    0.0010 C   0  0  0  0  0  0  0  0  0 17  0  0
   17.1319  -10.2015   -0.0142 C   0  0  0  0  0  0  0  0  0 18  0  0
   17.2122  -11.6638    0.0132 C   0  0  0  0  0  0  0  0  0 19  0  0
   22.2713  -14.0034   -0.2308 S   0  0  0  0  0  0  0  0  0 20  0  0
   23.8878  -13.6493   -0.6178 O   0  5  0  0  0  0  0  0  0 21  0  0
   21.9112  -13.3501    1.0900 O   0  0  0  0  0  0  0  0  0 22  0  0
   21.3670  -13.4654   -1.3232 O   0  0  0  0  0  0  0  0  0 23  0  0
   24.7554  -18.8289   -0.0592 S   0  0  0  0  0  0  0  0  0 24  0  0
   24.4935  -20.2900   -0.8860 O   0  5  0  0  0  0  0  0  0 25  0  0
   25.1582  -19.1488    1.3679 O   0  0  0  0  0  0  0  0  0 26  0  0
   25.8591  -18.0235   -0.7176 O   0  0  0  0  0  0  0  0  0 27  0  0
   17.5862  -18.3240    0.3251 H   0  0  0  0  0  0  0  0  0  0  0  0
   19.5622  -19.5244    0.2812 H   0  0  0  0  0  0  0  0  0  0  0  0
   21.9422  -19.5531    0.1522 H   0  0  0  0  0  0  0  0  0  0  0  0
   24.1936  -16.1063   -0.2108 H   0  0  0  0  0  0  0  0  0  0  0  0
   20.5154  -11.9172    0.1031 H   0  0  0  0  0  0  0  0  0  0  0  0
   20.3904   -9.5901    0.0594 H   0  0  0  0  0  0  0  0  0  0  0  0
   18.1931   -8.4751   -0.0188 H   0  0  0  0  0  0  0  0  0  0  0  0
   16.2401   -9.7499   -0.0443 H   0  0  0  0  0  0  0  0  0  0  0  0
   16.3748  -12.2102    0.0025 H   0  0  0  0  0  0  0  0  0  0  0  0
   17.3430  -14.7305    0.2078 H   0  0  0  0  0  0  0  0  0  0  0  0
  1  2  1  0  0  0  0
  2  3  1  0  0  0  0
  2 11  2  0  0  0  0
  3  4  2  0  0  0  0
  4  5  1  0  0  0  0
  5  6  2  0  0  0  0
  5 10  1  0  0  0  0
  6  7  1  0  0  0  0
  7  8  2  0  0  0  0
  7 24  1  0  0  0  0
  8  9  1  0  0  0  0
  9 10  2  0  0  0  0
  9 20  1  0  0  0  0
 10 11  1  0  0  0  0
 11 12  1  0  0  0  0
 12 13  2  0  0  0  0
 13 14  1  0  0  0  0
 14 15  1  0  0  0  0
 14 19  2  0  0  0  0
 15 16  2  0  0  0  0
 16 17  1  0  0  0  0
 17 18  2  0  0  0  0
 18 19  1  0  0  0  0
 20 21  1  0  0  0  0
 20 22  2  0  0  0  0
 20 23  2  0  0  0  0
 24 25  1  0  0  0  0
 24 26  2  0  0  0  0
 24 27  2  0  0  0  0
  3 28  1  0  0  0  0
  4 29  1  0  0  0  0
  6 30  1  0  0  0  0
  8 31  1  0  0  0  0
 15 32  1  0  0  0  0
 16 33  1  0  0  0  0
 17 34  1  0  0  0  0
 18 35  1  0  0  0  0
 19 36  1  0  0  0  0
  1 37  1  0  0  0  0
M  END
>  <Substance ID> (80)
80

>  <Mouse_Female_Canc> (80)
1

>  <SAL> (80)
1

>  <Rat_Male_Canc> (80)
1

>  <TD50_Rat> (80)
NP

>  <TD50_Mouse> (80)
NP

>  <Rat_Female_Canc> (80)
1

>  <Canc> (80)
1

>  <MolWeight> (80)
452.37

>  <Mouse_Male_Canc> (80)
1

>  <Mouse_Male_NTP> (80)
ND

>  <ChemName> (80)
C.I. Acid Orange 10

>  <Rat_Male_NTP> (80)
ND

>  <Reference> (80)
NTP211

>  <Formula> (80)
C16H10N2O7S2Na2

>  <SMILES> (80)
Oc2ccc1cc(cc(c1c2N=Nc3ccccc3)S([O-].[Na+].)(=O)=O)S([O-])(=O)=O.[Na+]

>  <Rat_Female_NTP> (80)
ND

>  <CAS> (80)
1936-15-8

>  <Mouse_Female_NTP> (80)
ND

>  <Synonyms> (80)
1370 orange; 1-phenylazo-2-naphthol-6,8-disulfonic acid, disodium salt; C.I. 27; C.I. acid orange 10, disodium salt; C.I. food orange 4; colacid orange g; crystal orange 2g; d & c orange no. 3; eniacid light orange g; erio fast orange as; fast light orange ga; fast light orange ga-cf; fast orange g; hexacol orange gg; hidacid fast orange 2g; hidacid fast orange g; hispacid fast orange 2g; Ink Orange JSN; intracid fast orange g; java orange 2g; kiton fast orange g; naphthalene fast orange 2g; naphthalene fast orange 2gs; naphthalene orange solide gg; neklacid fast light orange gg; neklacid fast orange 2g; orange 2g; orange bpc; orange G; orange g bpc; orange gg; Orange G, high purity biological stain; orange gmp; orange #10; schultz no. 39; solar light orange gx; standacol orange g; straight orange g; sulfacid light orange j; tertracid light orange g; unitertracid light orange g; vendacid light orange 2g; Wood Orange 2G; wool orange 2g; wool orange g; xylene fast orange g; 2-Hydroxy-1-phenylazo-6,8-naphthalenedisulfonic acid, disodium salt; 7-hydroxy-8-(phenylazo)-1,3-Naphthalenedisulfonic acid, disodium salt; acidal fast orange; acid fast orange egg; acid fast orange g; acid leather orange kg; acid leather orange pgw; acid light orange g; acid light orange j; acid light orange ja export; acid light orange sx; Acid orange 10; acid orange 2g; acid orange g; acid orange gg; acilan orange gx; apocid orange 2g; atul acid crystal orange g; brasilan orange 2g; bucacid fast orange g; calcocid fast light orange 2g; certicol orange gs; cetil light orange gg; C.I. 16230.

$$$$
81


 34 33  0  0  0  0  0  0  0  0999 V2000
   45.2970  -49.9949   -0.6481 C   0  0  0  0  0  0  0  0  0  0  0  0
   46.4620  -49.6372    0.2922 C   0  0  0  0  0  0  0  0  0  0  0  0
   47.7754  -49.9778   -0.3406 C   0  0  0  0  0  0  0  0  0  0  0  0
   48.8578  -49.2536   -0.0545 C   0  0  0  0  0  0  0  0  0  0  0  0
   38.0251  -49.8667   -0.4954 C   0  0  0  0  0  0  0  0  0  0  0  0
   39.3384  -49.3028   -0.0420 C   0  0  0  0  0  0  0  0  0  0  0  0
   39.3706  -48.4563    0.8565 O   0  0  0  0  0  0  0  0  0  0  0  0
   40.5166  -49.7397   -0.6363 O   0  0  0  0  0  0  0  0  0  0  0  0
   41.6178  -49.1066   -0.0054 C   0  0  0  0  0  0  0  0  0  0  0  0
   42.8901  -49.5091   -0.6862 C   0  0  0  0  0  0  0  0  0  0  0  0
   44.0043  -49.6386    0.0307 C   0  0  0  0  0  0  0  0  0  0  0  0
   43.9653  -49.4248    1.5241 C   0  0  0  0  0  0  0  0  0  0  0  0
   48.7606  -48.0713    0.8753 C   0  0  0  0  0  0  0  0  0  0  0  0
   50.1775  -49.6084   -0.6711 C   0  0  0  0  0  0  0  0  0  0  0  0
   45.3825  -49.4797   -1.5009 H   0  0  0  0  0  0  0  0  0  0  0  0
   45.3137  -50.9748   -0.8469 H   0  0  0  0  0  0  0  0  0  0  0  0
   46.4365  -48.6570    0.4884 H   0  0  0  0  0  0  0  0  0  0  0  0
   46.3654  -50.1509    1.1447 H   0  0  0  0  0  0  0  0  0  0  0  0
   47.8408  -50.7468   -0.9765 H   0  0  0  0  0  0  0  0  0  0  0  0
   38.1818  -50.5336   -1.2238 H   0  0  0  0  0  0  0  0  0  0  0  0
   37.4456  -49.1279   -0.8395 H   0  0  0  0  0  0  0  0  0  0  0  0
   37.5709  -50.3151    0.2744 H   0  0  0  0  0  0  0  0  0  0  0  0
   41.5090  -48.1143   -0.0645 H   0  0  0  0  0  0  0  0  0  0  0  0
   41.6536  -49.3818    0.9553 H   0  0  0  0  0  0  0  0  0  0  0  0
   42.9023  -49.6792   -1.6715 H   0  0  0  0  0  0  0  0  0  0  0  0
   44.8801  -49.5598    1.9046 H   0  0  0  0  0  0  0  0  0  0  0  0
   43.3326  -50.0790    1.9385 H   0  0  0  0  0  0  0  0  0  0  0  0
   43.6573  -48.4938    1.7201 H   0  0  0  0  0  0  0  0  0  0  0  0
   49.6619  -47.6497    0.9745 H   0  0  0  0  0  0  0  0  0  0  0  0
   48.4356  -48.3764    1.7705 H   0  0  0  0  0  0  0  0  0  0  0  0
   48.1198  -47.4022    0.4988 H   0  0  0  0  0  0  0  0  0  0  0  0
   50.8773  -48.9691   -0.3528 H   0  0  0  0  0  0  0  0  0  0  0  0
   50.1058  -49.5546   -1.6671 H   0  0  0  0  0  0  0  0  0  0  0  0
   50.4307  -50.5386   -0.4053 H   0  0  0  0  0  0  0  0  0  0  0  0
  1  2  1  0  0  0  0
  2  3  1  0  0  0  0
  3  4  2  0  0  0  0
  5  6  1  0  0  0  0
  6  7  2  0  0  0  0
  6  8  1  0  0  0  0
  8  9  1  0  0  0  0
  9 10  1  0  0  0  0
 10 11  2  0  0  0  0
 11 12  1  0  0  0  0
 11  1  1  0  0  0  0
  4 13  1  0  0  0  0
  4 14  1  0  0  0  0
  1 15  1  0  0  0  0
  1 16  1  0  0  0  0
  2 17  1  0  0  0  0
  2 18  1  0  0  0  0
  3 19  1  0  0  0  0
  5 20  1  0  0  0  0
  5 21  1  0  0  0  0
  5 22  1  0  0  0  0
  9 23  1  0  0  0  0
  9 24  1  0  0  0  0
 10 25  1  0  0  0  0
 12 26  1  0  0  0  0
 12 27  1  0  0  0  0
 12 28  1  0  0  0  0
 13 29  1  0  0  0  0
 13 30  1  0  0  0  0
 13 31  1  0  0  0  0
 14 32  1  0  0  0  0
 14 33  1  0  0  0  0
 14 34  1  0  0  0  0
M  END
>  <Substance ID> (81)
81

>  <Mouse_Female_Canc> (81)
1

>  <SAL> (81)
1

>  <Rat_Male_Canc> (81)
1

>  <TD50_Rat> (81)
NP

>  <TD50_Mouse> (81)
NP

>  <Rat_Female_Canc> (81)
1

>  <Canc> (81)
1

>  <MolWeight> (81)
196.29

>  <Mouse_Male_Canc> (81)
1

>  <Mouse_Male_NTP> (81)
ND

>  <ChemName> (81)
Geranyl Acetate

>  <Rat_Male_NTP> (81)
ND

>  <Reference> (81)
NTP252

>  <Formula> (81)
C12H20O2 

>  <SMILES> (81)
O=C(OCC=C(CCC=C(C)C)C)C

>  <Rat_Female_NTP> (81)
ND

>  <CAS> (81)
105-87-3

>  <Mouse_Female_NTP> (81)
ND

>  <Synonyms> (81)
3,7-dimethyl-2-trans,6-octadienyl acetate; 3,7-Dimethyl-trans-2,6-octadien-1-yl acetate; acetic acid, geraniol ester; (E)-3,7-dimethyl-2,6-octadien-1-ol acetate; (E)-3,7-dimethyl-2,6-octadien-1-yl acetate; geranoil acetate; trans-2,6-dimethyl-2,6-octadien-8-yl ethanoate; trans-3,7-dimethyl-2,6-octadien-1-ol acetate; trans-3,7-dimethyl-2,6-octadien-1-yl acetate.

$$$$
82


 43 46  0  0  0  0  0  0  0  0999 V2000
   33.2495  -56.6915    0.0446 C   0  0  0  0  0  0  0  0  0  0  0  0
   32.2837  -55.7771   -0.0272 C   0  0  0  0  0  0  0  0  0  0  0  0
   30.8693  -56.1945   -0.0569 C   0  0  0  0  0  0  0  0  0  0  0  0
   32.8893  -58.1237    0.0899 C   0  0  0  0  0  0  0  0  0  0  0  0
   36.8679  -56.8430    0.0611 C   0  0  0  0  0  0  0  0  0  0  0  0
   39.6310  -56.3255   -0.0473 C   0  0  0  0  0  0  0  0  0  0  0  0
   38.6636  -55.2133   -0.0327 C   0  0  0  0  0  0  0  0  0  0  0  0
   37.3517  -55.4579    0.0233 C   0  0  0  0  0  0  0  0  0  0  0  0
   39.1788  -57.5790    0.0009 C   0  0  0  0  0  0  0  0  0  0  0  0
   37.7489  -57.8428    0.0519 C   0  0  0  0  0  0  0  0  0  0  0  0
   38.1754  -60.2221    0.0619 C   0  0  0  0  0  0  0  0  0  0  0  0
   39.6247  -59.9561    0.0204 C   0  0  0  0  0  0  0  0  0  0  0  0
   37.2900  -59.2246    0.0794 C   0  0  0  0  0  0  0  0  0  0  0  0
   40.0946  -58.7102   -0.0058 C   0  0  0  0  0  0  0  0  0  0  0  0
   35.4860  -57.1448    0.0894 N   0  0  0  0  0  0  0  0  0  0  0  0
   34.6167  -56.2957    0.0577 N   0  0  0  0  0  0  0  0  0  0  0  0
   41.3892  -55.9830   -0.1296 S   0  0  0  0  0  0  0  0  0  0  0  0
   41.6150  -54.6614   -0.8353 O   0  0  0  0  0  0  0  0  0  0  0  0
   42.1409  -57.0872   -0.8505 O   0  0  0  0  0  0  0  0  0  0  0  0
   41.9746  -55.8701    1.4546 O   0  5  0  0  0  0  0  0  0  0  0  0
   31.6109  -58.4861    0.0634 C   0  0  0  0  0  0  0  0  0  0  0  0
   30.5624  -57.4929   -0.0077 C   0  0  0  0  0  0  0  0  0  0  0  0
   28.8946  -59.2482    0.0109 C   0  0  0  0  0  0  0  0  0  0  0  0
   29.9635  -60.2576    0.0721 C   0  0  0  0  0  0  0  0  0  0  0  0
   29.1805  -57.9479   -0.0239 C   0  0  0  0  0  0  0  0  0  0  0  0
   31.2473  -59.8978    0.1000 C   0  0  0  0  0  0  0  0  0  0  0  0
   33.8717  -59.1075    0.1555 O   0  0  0  0  0  0  0  0  0  0  0  0
   29.6098  -54.9402   -0.1445 S   0  0  0  0  0  0  0  0  0  0  0  0
   30.0649  -53.8400   -1.0807 O   0  0  0  0  0  0  0  0  0  0  0  0
   28.2689  -55.4806   -0.6034 O   0  0  0  0  0  0  0  0  0  0  0  0
   29.4471  -54.2928    1.4055 O   0  5  0  0  0  0  0  0  0  0  0  0
   32.5180  -54.8056   -0.0611 H   0  0  0  0  0  0  0  0  0  0  0  0
   38.9919  -54.2692   -0.0649 H   0  0  0  0  0  0  0  0  0  0  0  0
   36.7006  -54.6990    0.0394 H   0  0  0  0  0  0  0  0  0  0  0  0
   37.8500  -61.1676    0.0772 H   0  0  0  0  0  0  0  0  0  0  0  0
   40.2656  -60.7237    0.0118 H   0  0  0  0  0  0  0  0  0  0  0  0
   36.3109  -59.4256    0.1115 H   0  0  0  0  0  0  0  0  0  0  0  0
   41.0816  -58.5511   -0.0303 H   0  0  0  0  0  0  0  0  0  0  0  0
   27.9391  -59.5430   -0.0047 H   0  0  0  0  0  0  0  0  0  0  0  0
   29.7236  -61.2282    0.0931 H   0  0  0  0  0  0  0  0  0  0  0  0
   28.4387  -57.2783   -0.0616 H   0  0  0  0  0  0  0  0  0  0  0  0
   31.9611  -60.5966    0.1461 H   0  0  0  0  0  0  0  0  0  0  0  0
   33.4400  -60.0092    0.1783 H   0  0  0  0  0  0  0  0  0  0  0  0
  1  2  2  0  0  0  0
  1  4  1  0  0  0  0
  2  3  1  0  0  0  0
  3 22  2  0  0  0  0
 21  4  2  0  0  0  0
  5 10  2  0  0  0  0
  6  7  1  0  0  0  0
  5  8  1  0  0  0  0
  9  6  2  0  0  0  0
  7  8  2  0  0  0  0
  9 10  1  0  0  0  0
 11 12  1  0  0  0  0
  9 14  1  0  0  0  0
 10 13  1  0  0  0  0
 13 11  2  0  0  0  0
 12 14  2  0  0  0  0
  5 15  1  0  0  0  0
 15 16  2  0  0  0  0
 16  1  1  0  0  0  0
  6 17  1  0  0  0  0
 17 18  2  0  0  0  0
 17 19  2  0  0  0  0
 17 20  1  0  0  0  0
 21 22  1  0  0  0  0
 23 24  1  0  0  0  0
 21 26  1  0  0  0  0
 22 25  1  0  0  0  0
 25 23  2  0  0  0  0
 24 26  2  0  0  0  0
  4 27  1  0  0  0  0
  3 28  1  0  0  0  0
 28 29  2  0  0  0  0
 28 30  2  0  0  0  0
 28 31  1  0  0  0  0
  2 32  1  0  0  0  0
  7 33  1  0  0  0  0
  8 34  1  0  0  0  0
 11 35  1  0  0  0  0
 12 36  1  0  0  0  0
 13 37  1  0  0  0  0
 14 38  1  0  0  0  0
 23 39  1  0  0  0  0
 24 40  1  0  0  0  0
 25 41  1  0  0  0  0
 26 42  1  0  0  0  0
 27 43  1  0  0  0  0
M  END
>  <Substance ID> (82)
82

>  <Mouse_Female_Canc> (82)
1

>  <SAL> (82)
3

>  <Rat_Male_Canc> (82)
1

>  <TD50_Rat> (82)
NP

>  <TD50_Mouse> (82)
NP

>  <Rat_Female_Canc> (82)
1

>  <Canc> (82)
1

>  <MolWeight> (82)
502.43

>  <Mouse_Male_Canc> (82)
1

>  <Mouse_Male_NTP> (82)
ND

>  <ChemName> (82)
C.I. Acid Red 14

>  <Rat_Male_NTP> (82)
ND

>  <Reference> (82)
NTP220

>  <Formula> (82)
C20H12N2O7S2Na2 

>  <SMILES> (82)
Oc3c(N=Nc1ccc(c2ccccc12)S([O-].[Na+].)(=O)=O)cc(c4ccccc34)S([O-].[Na+].)(=O)=O

>  <Rat_Female_NTP> (82)
ND

>  <CAS> (82)
3567-69-9

>  <Mouse_Female_NTP> (82)
ND

>  <Synonyms> (82)
11959 red; 2-(4-sulfo-1-naphthylazo)-1-naphthol-4-sulfonic acid, disodium salt; 4-hydroxy-3,4'-azodi-1-naphthalenesulfonic acid, disodium salt; 4-hydroxy-3-[(4-sulfo-1-naphthyl)azo]-1-Naphthalenesulfonic acid, disodium salt; acetacid red b; acid brilliant rubine 2g; acid brilliant rubine 2gt; acid brilliant rubine a2g; acid chrome blue 2R; acid chrome blue ba; acid chrome blue ba-cf; acid chrome blue fbs; acid fast red fb; acid red 14; acid red 2c; acid rubine; amacid carmoisine b; amacid chrome blue r; atul acid crystal red; atul crystal red f; azorubin; azo rubine af; azo rubin extra; azo rubine extra lc; azo rubine lz; azo rubine s; azo rubine xx; diadem chrome blue g; diadem chrome blue r; disodium 2-(4-sulfo-1-naphthylazo)-1-naphthol-4-sulfonate; disodium salt of 2-(4-sulfo-1-naphthylazo)-1-naphthol-4-sulfonic acid; brasilan azo rubine 2ns; brilliant acid rubine m; brilliant carmoisine; brilliant crimson 2R.FQ; brilliant crimson red; bucacid azo rubine; calcocid rubine xx; Carmoisine; carmoisine aluminum lake; carmoisine ba; carmoisine ba-cf; carmoisine bss; carmoisine fu; carmoisine grn; carmoisine las; carmoisine s; carmoisine supra; carmoisine w; carmoisine ws; certicol carmoisine s; chrome fast blue 2R; chromotrope fb; C.I. 14720; C.I. acid red 14, disodium salt; C.I. food red 3; cilefa rubine r; crimson 2EMBL; crimson embl; E122; edicol supra carmoisine w; edicol supra carmoisine ws; eniacid brilliant rubine 3b; erio rubine b; eurocert azorubine; ext. d & c red no. 10; extract d and c red no. 10; fenazo red c; food red 5; fruit red a extra yellowish geigy; hd carmoisine; hd carmoisine supra; hexacol carmoisine; hidacid azo rubine; hispacid rubine f; java rubine n; karmesin; kenachrome blue 2R; kiton crimson 2R; kiton rubine r; lighthouse chrome blue 2R; L. Red Z 304C; nacarat; neklacid azorubine w; neklacid rubine w; nylomine acid red p4b; poloxal red 2b; pontacyl rubine r; red #14; solar rubine; solochrome blue fb; standacol carmoisine; tertracid red ca; tertrochrome blue fb; omega chrome blue fb.

$$$$
83


 12 12  0  0  0  0  0  0  0  0999 V2000
   31.1748  -69.2838   -0.0001 C   0  0  0  0  0  0  0  0  0  0  0  0
   31.1760  -70.6157    0.0002 C   0  0  0  0  0  0  0  0  0  0  0  0
   33.5974  -70.6799   -0.0007 C   0  0  0  0  0  0  0  0  0  0  0  0
   33.5966  -69.2155   -0.0003 C   0  0  0  0  0  0  0  0  0  0  0  0
   32.4446  -71.3468   -0.0004 C   0  0  0  0  0  0  0  0  0  0  0  0
   32.4428  -68.5503   -0.0002 C   0  0  0  0  0  0  0  0  0  0  0  0
   32.4421  -66.8225   -0.0004 Cl  0  0  0  0  0  0  0  0  0  0  0  0
   35.0925  -68.3514   -0.0001 Cl  0  0  0  0  0  0  0  0  0  0  0  0
   30.3083  -68.7845   -0.0004 H   0  0  0  0  0  0  0  0  0  0  0  0
   30.3104  -71.1164    0.0010 H   0  0  0  0  0  0  0  0  0  0  0  0
   34.4638  -71.1792   -0.0013 H   0  0  0  0  0  0  0  0  0  0  0  0
   32.4454  -72.3468   -0.0006 H   0  0  0  0  0  0  0  0  0  0  0  0
  1  2  2  0  0  0  0
  3  4  1  0  0  0  0
  1  6  1  0  0  0  0
  2  5  1  0  0  0  0
  5  3  2  0  0  0  0
  4  6  2  0  0  0  0
  6  7  1  0  0  0  0
  4  8  1  0  0  0  0
  1  9  1  0  0  0  0
  2 10  1  0  0  0  0
  3 11  1  0  0  0  0
  5 12  1  0  0  0  0
M  END
>  <Substance ID> (83)
83

>  <Mouse_Female_Canc> (83)
1

>  <SAL> (83)
1

>  <Rat_Male_Canc> (83)
1

>  <TD50_Rat> (83)
NP

>  <TD50_Mouse> (83)
NP

>  <Rat_Female_Canc> (83)
1

>  <Canc> (83)
1

>  <MolWeight> (83)
147.00

>  <Mouse_Male_Canc> (83)
1

>  <Mouse_Male_NTP> (83)
ND

>  <ChemName> (83)
1,2-Dichlorobenzene 

>  <Rat_Male_NTP> (83)
ND

>  <Reference> (83)
NTP255

>  <Formula> (83)
C6H4Cl2

>  <SMILES> (83)
ClC1=C(C=CC=C1)Cl

>  <Rat_Female_NTP> (83)
ND

>  <CAS> (83)
95-50-1

>  <Mouse_Female_NTP> (83)
ND

>  <Synonyms> (83)
o,p-Dichlorobenzene mixture; o-dichlorobenzene; o-Dichlorobenzol; Dichlorobenzene, 1,2-; Dichlorobenzol; Dichloricide; dilantin db; dilatin db; dizene; chloroben; chloroden; cloroben; DCB; dowtherm e; ODB; ODCB; special termite fluid; termitkil.

$$$$
84


 39 39  0  0  0  0  0  0  0  0999 V2000
   31.0808  -78.3610   -0.0593 C   0  0  0  0  0  0  0  0  0  0  0  0
   31.1493  -79.6723    0.1148 C   0  0  0  0  0  0  0  0  0  0  0  0
   33.5482  -79.5998    0.2305 C   0  0  0  0  0  0  0  0  0  0  0  0
   33.4850  -78.1409    0.0440 C   0  0  0  0  0  0  0  0  0  0  0  0
   32.4404  -80.3447    0.2608 C   0  0  0  0  0  0  0  0  0  0  0  0
   32.2875  -77.5403   -0.0937 C   0  0  0  0  0  0  0  0  0  0  0  0
   32.1636  -76.1331   -0.2817 N   0  0  0  0  0  0  0  0  0  0  0  0
   32.4927  -81.7853    0.4753 N   0  0  0  0  0  0  0  0  0  0  0  0
   31.2483  -82.5490    0.6543 C   0  0  0  0  0  0  0  0  0  0  0  0
   30.4139  -82.7251   -0.6509 C   0  0  0  0  0  0  0  0  0  0  0  0
   29.1715  -83.3576   -0.3288 O   0  0  0  0  0  0  0  0  0  0  0  0
   33.7685  -82.4875    0.6824 C   0  0  0  0  0  0  0  0  0  0  0  0
   34.6758  -82.5513   -0.5842 C   0  0  0  0  0  0  0  0  0  0  0  0
   35.9084  -83.1941   -0.2457 O   0  0  0  0  0  0  0  0  0  0  0  0
   34.6973  -77.4229    0.0073 N   0  3  0  0  0  0  0  0  0  0  0  0
   35.8489  -78.0834    0.1148 O   0  5  0  0  0  0  0  0  0  0  0  0
   34.7071  -76.2570   -0.1245 O   0  0  0  0  0  0  0  0  0  0  0  0
   30.8990  -75.5362   -0.6912 C   0  0  0  0  0  0  0  0  0  0  0  0
   29.9275  -75.2950    0.4954 C   0  0  0  0  0  0  0  0  0  0  0  0
   28.6876  -74.7958   -0.0170 O   0  0  0  0  0  0  0  0  0  0  0  0
   30.1872  -77.9259   -0.1690 H   0  0  0  0  0  0  0  0  0  0  0  0
   30.3069  -80.2101    0.1468 H   0  0  0  0  0  0  0  0  0  0  0  0
   34.4388  -80.0420    0.3366 H   0  0  0  0  0  0  0  0  0  0  0  0
   32.9582  -75.5452   -0.1300 H   0  0  0  0  0  0  0  0  0  0  0  0
   31.4846  -83.4570    1.0004 H   0  0  0  0  0  0  0  0  0  0  0  0
   30.6819  -82.0725    1.3267 H   0  0  0  0  0  0  0  0  0  0  0  0
   30.2379  -81.8294   -1.0594 H   0  0  0  0  0  0  0  0  0  0  0  0
   30.9212  -83.2935   -1.2987 H   0  0  0  0  0  0  0  0  0  0  0  0
   28.6304  -83.4740   -1.1617 H   0  0  0  0  0  0  0  0  0  0  0  0
   34.2724  -82.0153    1.4056 H   0  0  0  0  0  0  0  0  0  0  0  0
   33.5678  -83.4234    0.9718 H   0  0  0  0  0  0  0  0  0  0  0  0
   34.2129  -83.0719   -1.3016 H   0  0  0  0  0  0  0  0  0  0  0  0
   34.8604  -81.6243   -0.9107 H   0  0  0  0  0  0  0  0  0  0  0  0
   36.4950  -83.2381   -1.0544 H   0  0  0  0  0  0  0  0  0  0  0  0
   31.0889  -74.6582   -1.1305 H   0  0  0  0  0  0  0  0  0  0  0  0
   30.4555  -76.1481   -1.3462 H   0  0  0  0  0  0  0  0  0  0  0  0
   29.7687  -76.1553    0.9797 H   0  0  0  0  0  0  0  0  0  0  0  0
   30.3246  -74.6264    1.1241 H   0  0  0  0  0  0  0  0  0  0  0  0
   28.0536  -74.6367    0.7396 H   0  0  0  0  0  0  0  0  0  0  0  0
  1  2  2  0  0  0  0
  3  4  1  0  0  0  0
  1  6  1  0  0  0  0
  2  5  1  0  0  0  0
  5  3  2  0  0  0  0
  4  6  2  0  0  0  0
  6  7  1  0  0  0  0
  5  8  1  0  0  0  0
  8  9  1  0  0  0  0
  9 10  1  0  0  0  0
 10 11  1  0  0  0  0
  8 12  1  0  0  0  0
 12 13  1  0  0  0  0
 13 14  1  0  0  0  0
 15 16  1  0  0  0  0
 15 17  2  0  0  0  0
  4 15  1  0  0  0  0
  7 18  1  0  0  0  0
 18 19  1  0  0  0  0
 19 20  1  0  0  0  0
  1 21  1  0  0  0  0
  2 22  1  0  0  0  0
  3 23  1  0  0  0  0
  7 24  1  0  0  0  0
  9 25  1  0  0  0  0
  9 26  1  0  0  0  0
 10 27  1  0  0  0  0
 10 28  1  0  0  0  0
 11 29  1  0  0  0  0
 12 30  1  0  0  0  0
 12 31  1  0  0  0  0
 13 32  1  0  0  0  0
 13 33  1  0  0  0  0
 14 34  1  0  0  0  0
 18 35  1  0  0  0  0
 18 36  1  0  0  0  0
 19 37  1  0  0  0  0
 19 38  1  0  0  0  0
 20 39  1  0  0  0  0
M  END
>  <Substance ID> (84)
84

>  <Mouse_Female_Canc> (84)
1

>  <SAL> (84)
3

>  <Rat_Male_Canc> (84)
1

>  <TD50_Rat> (84)
NP

>  <TD50_Mouse> (84)
NP

>  <Rat_Female_Canc> (84)
1

>  <Canc> (84)
1

>  <MolWeight> (84)
285.30

>  <Mouse_Male_Canc> (84)
1

>  <Mouse_Male_NTP> (84)
NE

>  <ChemName> (84)
HC Blue no. 2

>  <Rat_Male_NTP> (84)
NE

>  <Reference> (84)
NTP293

>  <Formula> (84)
C12H19N3O5

>  <SMILES> (84)
C1(=C(C=CC(=C1)N(CCO)CCO)NCCO)[N+]([O-])=O

>  <Rat_Female_NTP> (84)
NE

>  <CAS> (84)
33229-34-4

>  <Mouse_Female_NTP> (84)
NE

>  <Synonyms> (84)
2,2'-((4-((2-hydroxyethyl)amino)-3-nitrophenyl)imino)bisethanol; 3-nitro-N(sup 1),N(sup 1),N(sup 4)-tris(2-hydroxyethyl)-p-phenylenediamine; hc blue 2; N1,N4,N4-tris(2-hydroxyethyl)-2-nitro-p-phenylenediamine.

$$$$
85


 18 19  0  0  0  0  0  0  0  0999 V2000
   36.1443  -90.3437   -0.0002 N   0  0  0  0  0  0  0  0  0  0  0  0
   37.2595  -89.7267   -0.0003 C   0  0  0  0  0  0  0  0  0  0  0  0
   37.3013  -88.2638   -0.0001 C   0  0  0  0  0  0  0  0  0  0  0  0
   36.1618  -87.5808   -0.0007 C   0  0  0  0  0  0  0  0  0  0  0  0
   34.9076  -88.3133    0.0003 C   0  0  0  0  0  0  0  0  0  0  0  0
   33.6348  -87.5934    0.0006 C   0  0  0  0  0  0  0  0  0  0  0  0
   32.4884  -88.2701    0.0001 C   0  0  0  0  0  0  0  0  0  0  0  0
   32.5025  -89.7333   -0.0008 C   0  0  0  0  0  0  0  0  0  0  0  0
   33.6630  -90.3875    0.0005 C   0  0  0  0  0  0  0  0  0  0  0  0
   34.9237  -89.6451    0.0007 C   0  0  0  0  0  0  0  0  0  0  0  0
   33.6753  -91.7782    0.0008 O   0  0  0  0  0  0  0  0  0  0  0  0
   38.1135  -90.2469   -0.0006 H   0  0  0  0  0  0  0  0  0  0  0  0
   38.1784  -87.7834    0.0006 H   0  0  0  0  0  0  0  0  0  0  0  0
   36.1675  -86.5808   -0.0020 H   0  0  0  0  0  0  0  0  0  0  0  0
   33.6256  -86.5934    0.0012 H   0  0  0  0  0  0  0  0  0  0  0  0
   31.6176  -87.7785    0.0002 H   0  0  0  0  0  0  0  0  0  0  0  0
   31.6415  -90.2419   -0.0025 H   0  0  0  0  0  0  0  0  0  0  0  0
   34.6208  -92.1036    0.0019 H   0  0  0  0  0  0  0  0  0  0  0  0
  1 10  1  0  0  0  0
  1  2  2  0  0  0  0
  2  3  1  0  0  0  0
  3  4  2  0  0  0  0
  4  5  1  0  0  0  0
  5 10  2  0  0  0  0
  5  6  1  0  0  0  0
  6  7  2  0  0  0  0
  7  8  1  0  0  0  0
  8  9  2  0  0  0  0
  9 10  1  0  0  0  0
  9 11  1  0  0  0  0
  2 12  1  0  0  0  0
  3 13  1  0  0  0  0
  4 14  1  0  0  0  0
  6 15  1  0  0  0  0
  7 16  1  0  0  0  0
  8 17  1  0  0  0  0
 11 18  1  0  0  0  0
M  END
>  <Substance ID> (85)
85

>  <Mouse_Female_Canc> (85)
1

>  <SAL> (85)
3

>  <Rat_Male_Canc> (85)
1

>  <TD50_Rat> (85)
NP

>  <TD50_Mouse> (85)
NP

>  <Rat_Female_Canc> (85)
1

>  <Canc> (85)
1

>  <MolWeight> (85)
145.16

>  <Mouse_Male_Canc> (85)
1

>  <Mouse_Male_NTP> (85)
NE

>  <ChemName> (85)
8-Hydroxyquinoline 

>  <Rat_Male_NTP> (85)
NE

>  <Reference> (85)
NTP276

>  <Formula> (85)
C9H7NO

>  <SMILES> (85)
OC1=CC=CC2=CC=CN=C12

>  <Rat_Female_NTP> (85)
NE

>  <CAS> (85)
148-24-3

>  <Mouse_Female_NTP> (85)
NE

>  <Synonyms> (85)
8-OQ; 8-oxyquinoline; 8-quinol; 8-Quinolinol; Azanaphthalene-8-ol; fennosan; Fennosan H 30; HQ; hydroxybenzopyridine; Hydroxychinolin; Hydroxyquinoline; OQ; OXIN; Oxine; oxybenzopyridine; oxychinolin; oxyquinoline; phenopyridine; Quinolinol; quinophenol; Tumex.

$$$$
86


 26 25  0  0  0  0  0  0  0  0999 V2000
    2.3672   -4.2158   -0.0143 O   0  0  0  0  0  0  0  0  0  0  0  0
    3.5375   -3.3919   -0.0016 C   0  0  0  0  0  0  0  0  0  0  0  0
    4.7899   -4.2815   -0.0007 C   0  0  2  0  0  0  0  0  0  0  0  0
    6.0447   -3.3965    0.0074 C   0  0  2  0  0  0  0  0  0  0  0  0
    7.2913   -4.2880    0.0062 C   0  0  1  0  0  0  0  0  0  0  0  0
    8.5461   -3.4032    0.0000 C   0  0  1  0  0  0  0  0  0  0  0  0
    9.7985   -4.2926   -0.0017 C   0  0  0  0  0  0  0  0  0  0  0  0
    4.7915   -5.1007   -1.1730 O   0  0  0  0  0  0  0  0  0  0  0  0
    6.0470   -2.5738    1.1783 O   0  0  0  0  0  0  0  0  0  0  0  0
    7.2890   -5.1111    1.1783 O   0  0  0  0  0  0  0  0  0  0  0  0
    8.5445   -2.5837   -1.1729 O   0  0  0  0  0  0  0  0  0  0  0  0
   10.9688   -3.4687   -0.0142 O   0  0  0  0  0  0  0  0  0  0  0  0
    1.5516   -3.6372   -0.0149 H   0  0  0  0  0  0  0  0  0  0  0  0
    3.5435   -2.8089   -0.8140 H   0  0  0  0  0  0  0  0  0  0  0  0
    3.5340   -2.8207    0.8192 H   0  0  0  0  0  0  0  0  0  0  0  0
    4.7868   -4.8630    0.8128 H   0  0  0  0  0  0  0  0  0  0  0  0
    6.0468   -2.8134   -0.8050 H   0  0  0  0  0  0  0  0  0  0  0  0
    7.2890   -4.8698   -0.8071 H   0  0  0  0  0  0  0  0  0  0  0  0
    8.5492   -2.8226    0.8142 H   0  0  0  0  0  0  0  0  0  0  0  0
    9.8022   -4.8643    0.8188 H   0  0  0  0  0  0  0  0  0  0  0  0
    9.7924   -4.8752   -0.8144 H   0  0  0  0  0  0  0  0  0  0  0  0
    5.6062   -5.6805   -1.1740 H   0  0  0  0  0  0  0  0  0  0  0  0
    6.8651   -1.9988    1.1806 H   0  0  0  0  0  0  0  0  0  0  0  0
    8.1019   -5.6933    1.1789 H   0  0  0  0  0  0  0  0  0  0  0  0
    9.3613   -2.0069   -1.1782 H   0  0  0  0  0  0  0  0  0  0  0  0
   11.7844   -4.0473   -0.0153 H   0  0  0  0  0  0  0  0  0  0  0  0
  1  2  1  0  0  0  0
  2  3  1  0  0  0  0
  3  4  1  0  0  0  0
  4  5  1  0  0  0  0
  5  6  1  0  0  0  0
  6  7  1  0  0  0  0
  3  8  1  6  0  0  0
  4  9  1  1  0  0  0
  5 10  1  1  0  0  0
  6 11  1  6  0  0  0
  7 12  1  0  0  0  0
  1 13  1  0  0  0  0
  2 14  1  0  0  0  0
  2 15  1  0  0  0  0
  3 16  1  0  0  0  0
  4 17  1  0  0  0  0
  5 18  1  0  0  0  0
  6 19  1  0  0  0  0
  7 20  1  0  0  0  0
  7 21  1  0  0  0  0
  8 22  1  0  0  0  0
  9 23  1  0  0  0  0
 10 24  1  0  0  0  0
 11 25  1  0  0  0  0
 12 26  1  0  0  0  0
M  END
>  <Substance ID> (86)
86

>  <Mouse_Female_Canc> (86)
1

>  <SAL> (86)
1

>  <Rat_Male_Canc> (86)
1

>  <TD50_Rat> (86)
NP

>  <TD50_Mouse> (86)
NP

>  <Rat_Female_Canc> (86)
1

>  <Canc> (86)
1

>  <MolWeight> (86)
182.17

>  <Mouse_Male_Canc> (86)
1

>  <Mouse_Male_NTP> (86)
ND

>  <ChemName> (86)
D-Mannitol 

>  <Rat_Male_NTP> (86)
ND

>  <Reference> (86)
NTP236

>  <Formula> (86)
C6H14O6

>  <SMILES> (86)
O[C@@H]([C@@H]([C@H](CO)O)O)[C@H](CO)O

>  <Rat_Female_NTP> (86)
ND

>  <CAS> (86)
69-65-8

>  <Mouse_Female_NTP> (86)
ND

>  <Synonyms> (86)
1,2,3,4,5,6-Hexanehexol; diosmol; cordycepic acid; D-mannite; manicol; manita; Manna sugar; mannidex; Mannite; osmitrol; osmosal.

$$$$
87


 13 13  0  0  0  0  0  0  0  0999 V2000
    5.7816  -17.1409   -0.0000 C   0  0  0  0  0  0  0  0  0  0  0  0
    5.7923  -18.4720    0.0007 C   0  0  0  0  0  0  0  0  0  0  0  0
    8.2137  -18.5197    0.0003 C   0  0  0  0  0  0  0  0  0  0  0  0
    8.2028  -17.0557    0.0004 C   0  0  0  0  0  0  0  0  0  0  0  0
    7.0654  -19.1942    0.0007 C   0  0  0  0  0  0  0  0  0  0  0  0
    7.0442  -16.3989    0.0003 C   0  0  0  0  0  0  0  0  0  0  0  0
    7.0333  -15.0081    0.0002 O   0  0  0  0  0  0  0  0  0  0  0  0
    4.9117  -16.6478   -0.0008 H   0  0  0  0  0  0  0  0  0  0  0  0
    4.9302  -18.9788    0.0013 H   0  0  0  0  0  0  0  0  0  0  0  0
    9.0835  -19.0132    0.0000 H   0  0  0  0  0  0  0  0  0  0  0  0
    9.0650  -16.5490    0.0005 H   0  0  0  0  0  0  0  0  0  0  0  0
    7.0729  -20.1941    0.0010 H   0  0  0  0  0  0  0  0  0  0  0  0
    7.9732  -14.6669    0.0004 H   0  0  0  0  0  0  0  0  0  0  0  0
  1  2  2  0  0  0  0
  3  4  1  0  0  0  0
  1  6  1  0  0  0  0
  2  5  1  0  0  0  0
  5  3  2  0  0  0  0
  4  6  2  0  0  0  0
  6  7  1  0  0  0  0
  1  8  1  0  0  0  0
  2  9  1  0  0  0  0
  3 10  1  0  0  0  0
  4 11  1  0  0  0  0
  5 12  1  0  0  0  0
  7 13  1  0  0  0  0
M  END
>  <Substance ID> (87)
87

>  <Mouse_Female_Canc> (87)
1

>  <SAL> (87)
1

>  <Rat_Male_Canc> (87)
1

>  <TD50_Rat> (87)
NP

>  <TD50_Mouse> (87)
NP

>  <Rat_Female_Canc> (87)
1

>  <Canc> (87)
1

>  <MolWeight> (87)
94.11

>  <Mouse_Male_Canc> (87)
1

>  <Mouse_Male_NTP> (87)
ND

>  <ChemName> (87)
Phenol

>  <Rat_Male_NTP> (87)
ND

>  <Reference> (87)
NTP203

>  <Formula> (87)
C6H6O

>  <SMILES> (87)
OC1=CC=CC=C1

>  <Rat_Female_NTP> (87)
ND

>  <CAS> (87)
108-95-2

>  <Mouse_Female_NTP> (87)
ND

>  <Synonyms> (87)
Baker's p and s; benzenol; Carbolic acid; Hydroxybenzene; monohydroxy benzene; monophenol; oxybenzene; Phenyl alcohol; Phenic Acid; Phenic; phenol alcohol; Phenol, liquid; Phenol, molten; PHENOL REAGENT; Phenol, solid; phenyl hydrate; phenyl hydroxide; Phenylic acid; phenylic acid, phenyl hydroxide; phenylic alcohol.

$$$$
88


  9  8  0  0  0  0  0  0  0  0999 V2000
    3.4308  -16.8425    0.0006 C   0  0  0  0  0  0  0  0  0  0  0  0
    4.5670  -16.1486    0.0005 C   0  0  0  0  0  0  0  0  0  0  0  0
    5.8854  -16.8671    0.0000 C   0  0  0  0  0  0  0  0  0  0  0  0
    2.5527  -16.3640    0.0010 H   0  0  0  0  0  0  0  0  0  0  0  0
    3.4554  -17.8422    0.0003 H   0  0  0  0  0  0  0  0  0  0  0  0
    4.5423  -15.1489    0.0009 H   0  0  0  0  0  0  0  0  0  0  0  0
    6.6296  -16.1991    0.0000 H   0  0  0  0  0  0  0  0  0  0  0  0
    5.9528  -17.4404   -0.8166 H   0  0  0  0  0  0  0  0  0  0  0  0
    5.9532  -17.4409    0.8162 H   0  0  0  0  0  0  0  0  0  0  0  0
  1  2  2  0  0  0  0
  2  3  1  0  0  0  0
  1  4  1  0  0  0  0
  1  5  1  0  0  0  0
  2  6  1  0  0  0  0
  3  7  1  0  0  0  0
  3  8  1  0  0  0  0
  3  9  1  0  0  0  0
M  END
>  <Substance ID> (88)
88

>  <Mouse_Female_Canc> (88)
1

>  <SAL> (88)
3

>  <Rat_Male_Canc> (88)
1

>  <TD50_Rat> (88)
NP

>  <TD50_Mouse> (88)
NP

>  <Rat_Female_Canc> (88)
1

>  <Canc> (88)
1

>  <MolWeight> (88)
42.08

>  <Mouse_Male_Canc> (88)
1

>  <Mouse_Male_NTP> (88)
NE

>  <ChemName> (88)
Propylene

>  <Rat_Male_NTP> (88)
NE

>  <Reference> (88)
NTP272

>  <Formula> (88)
C3H6

>  <SMILES> (88)
CC=C

>  <Rat_Female_NTP> (88)
NE

>  <CAS> (88)
115-07-1

>  <Mouse_Female_NTP> (88)
NE

>  <Synonyms> (88)
1-Propene; 1-Propylene; methylethene; Methylethylene; propene; propylene, various grades.

$$$$
89


 27 27  0  0  0  0  0  0  0  0999 V2000
    5.9179  -32.3964   -0.0327 C   0  0  0  0  0  0  0  0  0  0  0  0
    5.9157  -33.7242    0.0614 C   0  0  0  0  0  0  0  0  0  0  0  0
    8.3429  -33.7926    0.0506 C   0  0  0  0  0  0  0  0  0  0  0  0
    8.3419  -32.3308   -0.0601 C   0  0  0  0  0  0  0  0  0  0  0  0
    7.1863  -34.4545    0.1039 C   0  0  0  0  0  0  0  0  0  0  0  0
    7.1849  -31.6704   -0.1012 C   0  0  0  0  0  0  0  0  0  0  0  0
    4.7134  -31.6980   -0.0657 O   0  0  0  0  0  0  0  0  0  0  0  0
    4.7103  -34.4135    0.1236 O   0  0  0  0  0  0  0  0  0  0  0  0
    7.1823  -35.8421    0.1997 O   0  0  0  0  0  0  0  0  0  0  0  0
    9.6004  -31.5735   -0.1282 C   0  0  0  0  0  0  0  0  0  0  0  0
    9.5576  -30.3492   -0.2902 O   0  0  0  0  0  0  0  0  0  0  0  0
   10.8427  -32.1973    0.0084 O   0  0  0  0  0  0  0  0  0  0  0  0
   11.8487  -31.1729   -0.1085 C   0  0  0  0  0  0  0  0  0  0  0  0
   13.2033  -31.6303    0.4817 C   0  0  0  0  0  0  0  0  0  0  0  0
   13.7347  -32.8763   -0.2426 C   0  0  0  0  0  0  0  0  0  0  0  0
    9.2085  -34.2921    0.0861 H   0  0  0  0  0  0  0  0  0  0  0  0
    7.1835  -30.6735   -0.1793 H   0  0  0  0  0  0  0  0  0  0  0  0
    4.8977  -30.7178   -0.1376 H   0  0  0  0  0  0  0  0  0  0  0  0
    4.8900  -35.3949    0.1911 H   0  0  0  0  0  0  0  0  0  0  0  0
    8.1239  -36.1781    0.2170 H   0  0  0  0  0  0  0  0  0  0  0  0
   11.9749  -30.9518   -1.0756 H   0  0  0  0  0  0  0  0  0  0  0  0
   11.5400  -30.3583    0.3826 H   0  0  0  0  0  0  0  0  0  0  0  0
   13.8677  -30.8892    0.3849 H   0  0  0  0  0  0  0  0  0  0  0  0
   13.0807  -31.8444    1.4508 H   0  0  0  0  0  0  0  0  0  0  0  0
   14.6091  -33.1484    0.1591 H   0  0  0  0  0  0  0  0  0  0  0  0
   13.8641  -32.6690   -1.2123 H   0  0  0  0  0  0  0  0  0  0  0  0
   13.0774  -33.6239   -0.1467 H   0  0  0  0  0  0  0  0  0  0  0  0
  1  2  2  0  0  0  0
  3  4  1  0  0  0  0
  1  6  1  0  0  0  0
  2  5  1  0  0  0  0
  5  3  2  0  0  0  0
  4  6  2  0  0  0  0
  1  7  1  0  0  0  0
  2  8  1  0  0  0  0
  5  9  1  0  0  0  0
  4 10  1  0  0  0  0
 10 11  2  0  0  0  0
 10 12  1  0  0  0  0
 12 13  1  0  0  0  0
 13 14  1  0  0  0  0
 14 15  1  0  0  0  0
  3 16  1  0  0  0  0
  6 17  1  0  0  0  0
  7 18  1  0  0  0  0
  8 19  1  0  0  0  0
  9 20  1  0  0  0  0
 13 21  1  0  0  0  0
 13 22  1  0  0  0  0
 14 23  1  0  0  0  0
 14 24  1  0  0  0  0
 15 25  1  0  0  0  0
 15 26  1  0  0  0  0
 15 27  1  0  0  0  0
M  END
>  <Substance ID> (89)
89

>  <Mouse_Female_Canc> (89)
1

>  <SAL> (89)
1

>  <Rat_Male_Canc> (89)
2

>  <TD50_Rat> (89)
NP

>  <TD50_Mouse> (89)
NP

>  <Rat_Female_Canc> (89)
1

>  <Canc> (89)
2

>  <MolWeight> (89)
212.20

>  <Mouse_Male_Canc> (89)
2

>  <Mouse_Male_NTP> (89)
ND

>  <ChemName> (89)
Propyl Gallate

>  <Rat_Male_NTP> (89)
ND

>  <Reference> (89)
NTP240

>  <Formula> (89)
C10H12O5

>  <SMILES> (89)
O=C(C1=CC(=C(C(=C1)O)O)O)OCCC

>  <Rat_Female_NTP> (89)
ND

>  <CAS> (89)
121-79-9

>  <Mouse_Female_NTP> (89)
ND

>  <Synonyms> (89)
3,4,5-Trihydroxybenzoic acid propyl ester; Gallic acid propyl ester; nipa 49; nipagallin p; n-propyl 3,4,5-trihydroxybenzoate; n-propyl ester of 3,4,5-trihydroxybenzoic acid; n-Propyl Gallate; PG; Progallin P; propyl 3,4,5-trihydroxybenzoate; Tenox PG.

$$$$
90


 19 19  0  0  0  0  0  0  0  0999 V2000
    2.9883  -42.8441    0.0001 C   0  0  0  0  0  0  0  0  0  0  0  0
    2.9868  -44.1761   -0.0006 C   0  0  0  0  0  0  0  0  0  0  0  0
    5.4075  -44.2444   -0.0004 C   0  0  0  0  0  0  0  0  0  0  0  0
    5.4092  -42.7803   -0.0001 C   0  0  0  0  0  0  0  0  0  0  0  0
    4.2537  -44.9092   -0.0004 C   0  0  0  0  0  0  0  0  0  0  0  0
    4.2567  -42.1133    0.0002 C   0  0  0  0  0  0  0  0  0  0  0  0
    6.6188  -42.0833   -0.0004 N   0  0  0  0  0  0  0  0  0  0  0  0
    1.7806  -42.1445    0.0003 N   0  0  0  0  0  0  0  0  0  0  0  0
    4.2585  -40.6120   -0.0003 C   0  0  0  0  0  0  0  0  0  0  0  0
    2.1202  -44.6752   -0.0013 H   0  0  0  0  0  0  0  0  0  0  0  0
    6.2730  -44.7453   -0.0006 H   0  0  0  0  0  0  0  0  0  0  0  0
    4.2528  -45.9092   -0.0003 H   0  0  0  0  0  0  0  0  0  0  0  0
    6.6196  -41.0833   -0.0002 H   0  0  0  0  0  0  0  0  0  0  0  0
    7.4844  -42.5839   -0.0008 H   0  0  0  0  0  0  0  0  0  0  0  0
    1.7821  -41.1445    0.0009 H   0  0  0  0  0  0  0  0  0  0  0  0
    0.9139  -42.6432   -0.0002 H   0  0  0  0  0  0  0  0  0  0  0  0
    5.2015  -40.2794   -0.0002 H   0  0  0  0  0  0  0  0  0  0  0  0
    3.7874  -40.2774    0.8158 H   0  0  0  0  0  0  0  0  0  0  0  0
    3.7878  -40.2780   -0.8170 H   0  0  0  0  0  0  0  0  0  0  0  0
  1  2  2  0  0  0  0
  3  4  1  0  0  0  0
  1  6  1  0  0  0  0
  2  5  1  0  0  0  0
  5  3  2  0  0  0  0
  4  6  2  0  0  0  0
  4  7  1  0  0  0  0
  1  8  1  0  0  0  0
  6  9  1  0  0  0  0
  2 10  1  0  0  0  0
  3 11  1  0  0  0  0
  5 12  1  0  0  0  0
  7 13  1  0  0  0  0
  7 14  1  0  0  0  0
  8 15  1  0  0  0  0
  8 16  1  0  0  0  0
  9 17  1  0  0  0  0
  9 18  1  0  0  0  0
  9 19  1  0  0  0  0
M  END
>  <Substance ID> (90)
90

>  <Mouse_Female_Canc> (90)
1

>  <SAL> (90)
3

>  <Rat_Male_Canc> (90)
1

>  <TD50_Rat> (90)
NP

>  <TD50_Mouse> (90)
NP

>  <Rat_Female_Canc> (90)
1

>  <Canc> (90)
1

>  <MolWeight> (90)
122.17

>  <Mouse_Male_Canc> (90)
1

>  <Mouse_Male_NTP> (90)
ND

>  <ChemName> (90)
2,6-Toluenediamine Dihydrochloride

>  <Rat_Male_NTP> (90)
ND

>  <Reference> (90)
NTP200

>  <Formula> (90)
C7H10N2 

>  <SMILES> (90)
Cc1c(N)cccc1N

>  <Rat_Female_NTP> (90)
ND

>  <CAS> (90)
15481-70-6

>  <Mouse_Female_NTP> (90)
ND

>  <Synonyms> (90)
2,6-Diaminotoluene dihydrochloride; toluene-2,6-diamine, dihydrochloride.

$$$$
91


  6  5  0  0  0  0  0  0  0  0999 V2000
    6.7922  -51.3003   -0.0001 C   0  0  0  0  0  0  0  0  0  0  0  0
    8.0825  -50.9725   -0.0008 C   0  0  0  0  0  0  0  0  0  0  0  0
    5.5859  -50.0623    0.0007 Cl  0  0  0  0  0  0  0  0  0  0  0  0
    6.3231  -52.9640   -0.0001 Cl  0  0  0  0  0  0  0  0  0  0  0  0
    8.7803  -51.6887   -0.0013 H   0  0  0  0  0  0  0  0  0  0  0  0
    8.3538  -50.0100   -0.0008 H   0  0  0  0  0  0  0  0  0  0  0  0
  1  2  2  0  0  0  0
  1  3  1  0  0  0  0
  1  4  1  0  0  0  0
  2  5  1  0  0  0  0
  2  6  1  0  0  0  0
M  END
>  <Substance ID> (91)
91

>  <Mouse_Female_Canc> (91)
1

>  <SAL> (91)
3

>  <Rat_Male_Canc> (91)
1

>  <TD50_Rat> (91)
NP

>  <TD50_Mouse> (91)
NP

>  <Rat_Female_Canc> (91)
1

>  <Canc> (91)
1

>  <MolWeight> (91)
96.94

>  <Mouse_Male_Canc> (91)
1

>  <Mouse_Male_NTP> (91)
ND

>  <ChemName> (91)
Vinylidene Chloride

>  <Rat_Male_NTP> (91)
ND

>  <Reference> (91)
NTP228

>  <Formula> (91)
C2H2Cl2

>  <SMILES> (91)
C=C(Cl)Cl

>  <Rat_Female_NTP> (91)
ND

>  <CAS> (91)
75-35-4

>  <Mouse_Female_NTP> (91)
ND

>  <Synonyms> (91)
1,1-Dichloroethene; 1,1-dichloroethylene; 1,1-DCE; asym-dichloroethylene; sconatex; vinylidene dichloride; vinylidene chloride(II).

$$$$
92


 42 43  0  0  0  0  0  0  0  0999 V2000
    6.8079  -58.9976    0.5083 C   0  0  0  0  0  0  0  0  0  0  0  0
    6.2019  -57.9313    0.6490 O   0  0  0  0  0  0  0  0  0  0  0  0
    8.2538  -58.9901    0.2564 C   0  0  0  0  0  0  0  0  0  0  0  0
    8.9227  -60.1286    0.0846 C   0  0  0  0  0  0  0  0  0  0  0  0
   10.9914  -58.9275   -0.3311 C   0  0  0  0  0  0  0  0  0  0  0  0
   10.2584  -57.6834   -0.0981 C   0  0  0  0  0  0  0  0  0  0  0  0
   10.3623  -60.0994   -0.2310 C   0  0  0  0  0  0  0  0  0  0  0  0
    8.9567  -57.7111    0.1773 C   0  0  0  0  0  0  0  0  0  0  0  0
   12.6835  -58.8408   -0.8627 S   0  0  0  0  0  0  0  0  0  0  0  0
   12.8941  -57.4220   -1.3639 O   0  0  0  0  0  0  0  0  0  0  0  0
   12.8326  -59.8400   -1.9968 O   0  0  0  0  0  0  0  0  0  0  0  0
   13.8759  -59.2015    0.4211 N   0  0  0  0  0  0  0  0  0  0  0  0
   15.3418  -59.1455    0.1627 C   0  0  0  0  0  0  0  0  0  0  0  0
   15.7585  -58.8708   -0.9698 O   0  0  0  0  0  0  0  0  0  0  0  0
   16.2815  -59.4048    1.2245 N   0  0  0  0  0  0  0  0  0  0  0  0
   17.7458  -59.2133    1.0926 C   0  0  0  0  0  0  0  0  0  0  0  0
   18.3901  -60.4604    0.4418 C   0  0  0  0  0  0  0  0  0  0  0  0
   19.9264  -60.2735    0.3567 C   0  0  0  0  0  0  0  0  0  0  0  0
   20.2551  -59.0309   -0.4987 C   0  0  0  0  0  0  0  0  0  0  0  0
   19.6351  -57.7807    0.1575 C   0  0  0  0  0  0  0  0  0  0  0  0
   18.1040  -57.9484    0.2526 C   0  0  0  0  0  0  0  0  0  0  0  0
    6.0578  -60.2983    0.5684 C   0  0  0  0  0  0  0  0  0  0  0  0
    8.4479  -61.0045    0.1699 H   0  0  0  0  0  0  0  0  0  0  0  0
   10.7380  -56.8072   -0.1460 H   0  0  0  0  0  0  0  0  0  0  0  0
   10.8642  -60.9531   -0.3692 H   0  0  0  0  0  0  0  0  0  0  0  0
    8.4596  -56.8570    0.3301 H   0  0  0  0  0  0  0  0  0  0  0  0
   13.5505  -59.4467    1.3344 H   0  0  0  0  0  0  0  0  0  0  0  0
   15.9257  -59.7323    2.0998 H   0  0  0  0  0  0  0  0  0  0  0  0
   18.1081  -59.0815    2.0152 H   0  0  0  0  0  0  0  0  0  0  0  0
   18.1841  -61.2674    0.9953 H   0  0  0  0  0  0  0  0  0  0  0  0
   18.0192  -60.5834   -0.4787 H   0  0  0  0  0  0  0  0  0  0  0  0
   20.2973  -60.1505    1.2772 H   0  0  0  0  0  0  0  0  0  0  0  0
   20.3365  -61.0833   -0.0629 H   0  0  0  0  0  0  0  0  0  0  0  0
   21.2471  -58.9194   -0.5580 H   0  0  0  0  0  0  0  0  0  0  0  0
   19.8769  -59.1482   -1.4169 H   0  0  0  0  0  0  0  0  0  0  0  0
   20.0143  -57.6645    1.0755 H   0  0  0  0  0  0  0  0  0  0  0  0
   19.8474  -56.9752   -0.3957 H   0  0  0  0  0  0  0  0  0  0  0  0
   17.7257  -58.0465   -0.6679 H   0  0  0  0  0  0  0  0  0  0  0  0
   17.7108  -57.1401    0.6908 H   0  0  0  0  0  0  0  0  0  0  0  0
    6.6951  -61.0575    0.4362 H   0  0  0  0  0  0  0  0  0  0  0  0
    5.3639  -60.3170   -0.1514 H   0  0  0  0  0  0  0  0  0  0  0  0
    5.6147  -60.3872    1.4605 H   0  0  0  0  0  0  0  0  0  0  0  0
  1  2  2  0  0  0  0
  1  3  1  0  0  0  0
  3  4  2  0  0  0  0
  5  6  1  0  0  0  0
  3  8  1  0  0  0  0
  4  7  1  0  0  0  0
  7  5  2  0  0  0  0
  6  8  2  0  0  0  0
  5  9  1  0  0  0  0
  9 10  2  0  0  0  0
  9 11  2  0  0  0  0
  9 12  1  0  0  0  0
 12 13  1  0  0  0  0
 13 14  2  0  0  0  0
 13 15  1  0  0  0  0
 15 16  1  0  0  0  0
 16 17  1  0  0  0  0
 16 21  1  0  0  0  0
 17 18  1  0  0  0  0
 18 19  1  0  0  0  0
 19 20  1  0  0  0  0
 20 21  1  0  0  0  0
  1 22  1  0  0  0  0
  4 23  1  0  0  0  0
  6 24  1  0  0  0  0
  7 25  1  0  0  0  0
  8 26  1  0  0  0  0
 12 27  1  0  0  0  0
 15 28  1  0  0  0  0
 16 29  1  0  0  0  0
 17 30  1  0  0  0  0
 17 31  1  0  0  0  0
 18 32  1  0  0  0  0
 18 33  1  0  0  0  0
 19 34  1  0  0  0  0
 19 35  1  0  0  0  0
 20 36  1  0  0  0  0
 20 37  1  0  0  0  0
 21 38  1  0  0  0  0
 21 39  1  0  0  0  0
 22 40  1  0  0  0  0
 22 41  1  0  0  0  0
 22 42  1  0  0  0  0
M  END
>  <Substance ID> (92)
92

>  <Mouse_Female_Canc> (92)
1

>  <SAL> (92)
1

>  <Rat_Male_Canc> (92)
1

>  <TD50_Rat> (92)
NP

>  <TD50_Mouse> (92)
NP

>  <Rat_Female_Canc> (92)
1

>  <Canc> (92)
1

>  <MolWeight> (92)
324.39

>  <Mouse_Male_Canc> (92)
1

>  <Mouse_Male_NTP> (92)
ND

>  <ChemName> (92)
Acetohexamide

>  <Rat_Male_NTP> (92)
ND

>  <Reference> (92)
NTP50

>  <Formula> (92)
C15H20N2O4S

>  <SMILES> (92)
O=S(=O)(C1=CC=C(C=C1)C(=O)C)NC(=O)NC2CCCCC2

>  <Rat_Female_NTP> (92)
ND

>  <CAS> (92)
968-81-0

>  <Mouse_Female_NTP> (92)
ND

>  <Synonyms> (92)
1-(p-acetylbenzenesulfonyl)-3-cyclohexylurea; 1-((p-acetylphenyl)sulfonyl)-3-cyclohexylurea; 3-cyclohexyl-1-(p-acetylphenylsulfonyl)urea; metaglucina; 4-acetyl-N-((cyclohexylamino)carbonyl)benzenesulfonamide; Dimelin; dimelin (antidiabetic); dimelor; cyclamide; Dymelor; gamadiabet; hypoglicil; minoral; N-(p-acetylbenzenesulfonyl)-N'-cyclohexylurea; N-(p-acetylphenylsulfonyl)-N'-cyclohexylurea; ordimel; tsiklamid; u 14812.

$$$$
93


 26 25  0  0  0  0  0  0  0  0999 V2000
    4.7646  -65.6664    0.0284 C   0  0  0  0  0  0  0  0  0  0  0  0
    6.0167  -66.4432    0.3009 C   0  0  0  0  0  0  0  0  0  0  0  0
    3.7945  -66.5673   -1.2026 S   0  0  0  0  0  0  0  0  0  0  0  0
    7.1537  -65.9319    0.0711 N   0  0  0  0  0  0  0  0  0  0  0  0
    8.2413  -66.6415    0.2983 O   0  0  0  0  0  0  0  0  0  0  0  0
    9.3523  -65.8827   -0.0192 C   0  0  0  0  0  0  0  0  0  0  0  0
    9.2092  -64.7260   -0.4292 O   0  0  0  0  0  0  0  0  0  0  0  0
   10.6265  -66.4271    0.1216 N   0  0  0  0  0  0  0  0  0  0  0  0
    5.1057  -64.2566   -0.4896 C   0  0  0  0  0  0  0  0  0  0  0  0
    3.9316  -65.5759    1.3197 C   0  0  0  0  0  0  0  0  0  0  0  0
    3.4376  -68.2255   -0.5730 C   0  0  0  0  0  0  0  0  0  0  0  0
   10.7761  -67.7803    0.5742 C   0  0  0  0  0  0  0  0  0  0  0  0
    5.9549  -67.3718    0.6668 H   0  0  0  0  0  0  0  0  0  0  0  0
   11.4338  -65.8770   -0.0919 H   0  0  0  0  0  0  0  0  0  0  0  0
    4.2605  -63.7523   -0.6663 H   0  0  0  0  0  0  0  0  0  0  0  0
    5.6324  -64.3305   -1.3365 H   0  0  0  0  0  0  0  0  0  0  0  0
    5.6460  -63.7703    0.1972 H   0  0  0  0  0  0  0  0  0  0  0  0
    3.0949  -65.0580    1.1416 H   0  0  0  0  0  0  0  0  0  0  0  0
    4.4643  -65.1140    2.0289 H   0  0  0  0  0  0  0  0  0  0  0  0
    3.6936  -66.4967    1.6286 H   0  0  0  0  0  0  0  0  0  0  0  0
    2.9008  -68.7307   -1.2487 H   0  0  0  0  0  0  0  0  0  0  0  0
    2.9186  -68.1546    0.2788 H   0  0  0  0  0  0  0  0  0  0  0  0
    4.2959  -68.7090   -0.4008 H   0  0  0  0  0  0  0  0  0  0  0  0
   11.7479  -68.0116    0.6194 H   0  0  0  0  0  0  0  0  0  0  0  0
   10.3162  -68.3983   -0.0635 H   0  0  0  0  0  0  0  0  0  0  0  0
   10.3687  -67.8754    1.4825 H   0  0  0  0  0  0  0  0  0  0  0  0
  1  2  1  0  0  0  0
  1  3  1  0  0  0  0
  2  4  2  0  0  0  0
  4  5  1  0  0  0  0
  5  6  1  0  0  0  0
  6  7  2  0  0  0  0
  6  8  1  0  0  0  0
  1  9  1  0  0  0  0
  1 10  1  0  0  0  0
  3 11  1  0  0  0  0
  8 12  1  0  0  0  0
  2 13  1  0  0  0  0
  8 14  1  0  0  0  0
  9 15  1  0  0  0  0
  9 16  1  0  0  0  0
  9 17  1  0  0  0  0
 10 18  1  0  0  0  0
 10 19  1  0  0  0  0
 10 20  1  0  0  0  0
 11 21  1  0  0  0  0
 11 22  1  0  0  0  0
 11 23  1  0  0  0  0
 12 24  1  0  0  0  0
 12 25  1  0  0  0  0
 12 26  1  0  0  0  0
M  END
>  <Substance ID> (93)
93

>  <Mouse_Female_Canc> (93)
1

>  <SAL> (93)
1

>  <Rat_Male_Canc> (93)
1

>  <TD50_Rat> (93)
NP

>  <TD50_Mouse> (93)
NP

>  <Rat_Female_Canc> (93)
1

>  <Canc> (93)
1

>  <MolWeight> (93)
190.26

>  <Mouse_Male_Canc> (93)
1

>  <Mouse_Male_NTP> (93)
ND

>  <ChemName> (93)
Aldicarb

>  <Rat_Male_NTP> (93)
ND

>  <Reference> (93)
NTP136

>  <Formula> (93)
C7H14N2O2S

>  <SMILES> (93)
CC(C=NOC(=O)NC)(SC)C

>  <Rat_Female_NTP> (93)
ND

>  <CAS> (93)
116-06-3

>  <Mouse_Female_NTP> (93)
ND

>  <Synonyms> (93)
2-Methyl-2-(methylthio)propanal O-[(methylamino)carbonyl]oxime; 2-methyl-2-(methylthio)propionaldehyde O-(methylcarbamoyl)oxime; aldicarb+; Methyl-2-(methylthio)propionaldehyde O-(methylcarbamoyl)oxime; Methylcarbamic acid, o-((2-methyl-2-(methylthio)propylidene)amino) deriv.; N-methylcarbamoyloxime,2-methyl-2-methylsulfenylpropionaldehyde; N-methylcarbamoyloxime,2-methylthio-2-methylpropionaldehyde; Temik; temik 10 g; temik g10; UC21149; Union Carbide UC 21149.

$$$$
94


 21 22  0  0  0  0  0  0  0  0999 V2000
    6.2941  -81.0583   -0.0043 N   0  0  0  0  0  0  0  0  0  0  0  0
    7.4535  -81.5807    0.0006 C   0  0  0  0  0  0  0  0  0  0  0  0
    8.4754  -79.5047    0.0004 C   0  0  0  0  0  0  0  0  0  0  0  0
    7.1968  -78.9433   -0.0025 N   0  0  0  0  0  0  0  0  0  0  0  0
    8.5941  -80.7688    0.0031 N   0  0  0  0  0  0  0  0  0  0  0  0
    6.1628  -79.6744   -0.0041 C   0  0  0  0  0  0  0  0  0  0  0  0
    4.5983  -78.9401   -0.0029 Cl  0  0  0  0  0  0  0  0  0  0  0  0
    9.6439  -78.6974    0.0011 N   0  0  0  0  0  0  0  0  0  0  0  0
    7.6219  -83.2975    0.0036 Cl  0  0  0  0  0  0  0  0  0  0  0  0
    9.6263  -77.2773    0.0003 C   0  0  0  0  0  0  0  0  0  0  0  0
   10.7821  -76.6173    0.0015 C   0  0  0  0  0  0  0  0  0  0  0  0
    9.6453  -74.4730    0.0010 C   0  0  0  0  0  0  0  0  0  0  0  0
    8.3764  -75.1879   -0.0008 C   0  0  0  0  0  0  0  0  0  0  0  0
   10.7913  -75.1515    0.0019 C   0  0  0  0  0  0  0  0  0  0  0  0
    8.3685  -76.5159   -0.0013 C   0  0  0  0  0  0  0  0  0  0  0  0
   12.2742  -77.4880    0.0031 Cl  0  0  0  0  0  0  0  0  0  0  0  0
   10.5323  -79.1564    0.0022 H   0  0  0  0  0  0  0  0  0  0  0  0
    9.6561  -73.4730    0.0017 H   0  0  0  0  0  0  0  0  0  0  0  0
    7.5145  -74.6808   -0.0018 H   0  0  0  0  0  0  0  0  0  0  0  0
   11.6616  -74.6591    0.0027 H   0  0  0  0  0  0  0  0  0  0  0  0
    7.4958  -77.0042   -0.0027 H   0  0  0  0  0  0  0  0  0  0  0  0
  1  2  2  0  0  0  0
  3  4  1  0  0  0  0
  1  6  1  0  0  0  0
  2  5  1  0  0  0  0
  5  3  2  0  0  0  0
  4  6  2  0  0  0  0
  6  7  1  0  0  0  0
  3  8  1  0  0  0  0
  2  9  1  0  0  0  0
  8 10  1  0  0  0  0
 10 11  2  0  0  0  0
 12 13  1  0  0  0  0
 10 15  1  0  0  0  0
 11 14  1  0  0  0  0
 14 12  2  0  0  0  0
 13 15  2  0  0  0  0
 11 16  1  0  0  0  0
  8 17  1  0  0  0  0
 12 18  1  0  0  0  0
 13 19  1  0  0  0  0
 14 20  1  0  0  0  0
 15 21  1  0  0  0  0
M  END
>  <Substance ID> (94)
94

>  <Mouse_Female_Canc> (94)
1

>  <SAL> (94)
1

>  <Rat_Male_Canc> (94)
1

>  <TD50_Rat> (94)
NP

>  <TD50_Mouse> (94)
NP

>  <Rat_Female_Canc> (94)
1

>  <Canc> (94)
1

>  <MolWeight> (94)
275.52

>  <Mouse_Male_Canc> (94)
1

>  <Mouse_Male_NTP> (94)
ND

>  <ChemName> (94)
Anilazine

>  <Rat_Male_NTP> (94)
ND

>  <Reference> (94)
NTP104

>  <Formula> (94)
C9H5Cl3N4

>  <SMILES> (94)
ClC1=NC(=NC(=N1)NC2=CC=CC=C2Cl)Cl

>  <Rat_Female_NTP> (94)
ND

>  <CAS> (94)
101-05-3

>  <Mouse_Female_NTP> (94)
ND

>  <Synonyms> (94)
1,3,5-Triazine, 2,4-dichloro-6-(o-chloroanilino)-; 2,4-dichloro-6-o-chloroanilino-s-triazine; (o-chloroanilino)dichloro-s-triazine; 2-chloro-N-(4,6-dichloro-1,3,5-triazin-2-yl)aniline; 4,6-Dichloro-N-(2-chlorophenyl)-1,3,5-triazin-2-amine; aniyaline; B-622; Dichloro-6-(o-chloroanilino)-s-triazine; Dichloro-N-(2-chlorophenyl)-1,3,5-triazin-2-amine; Direx; Direz; bortrysan; Dyrene; dyrene 50w; Kemate; Triasym; Triasyn; zinochlor.

$$$$
95


 18 18  0  0  0  0  0  0  0  0999 V2000
    5.1298  -89.4667   -0.0028 C   0  0  0  0  0  0  0  0  0  0  0  0
    5.1275  -90.7986   -0.0026 C   0  0  0  0  0  0  0  0  0  0  0  0
    7.5509  -90.8707    0.0008 C   0  0  0  0  0  0  0  0  0  0  0  0
    7.5541  -89.4119    0.0015 C   0  0  0  0  0  0  0  0  0  0  0  0
    6.3964  -91.5325   -0.0006 C   0  0  0  0  0  0  0  0  0  0  0  0
    6.4033  -88.7368    0.0001 C   0  0  0  0  0  0  0  0  0  0  0  0
    6.4007  -87.3350    0.0011 O   0  0  0  0  0  0  0  0  0  0  0  0
    6.3966  -92.9260   -0.0006 N   0  0  0  0  0  0  0  0  0  0  0  0
    7.7425  -86.8202    0.0011 C   0  0  0  0  0  0  0  0  0  0  0  0
    4.2650  -88.9646   -0.0049 H   0  0  0  0  0  0  0  0  0  0  0  0
    4.2609  -91.2976   -0.0039 H   0  0  0  0  0  0  0  0  0  0  0  0
    8.4156  -91.3729    0.0014 H   0  0  0  0  0  0  0  0  0  0  0  0
    8.4225  -88.9159    0.0030 H   0  0  0  0  0  0  0  0  0  0  0  0
    7.2626  -93.4259    0.0007 H   0  0  0  0  0  0  0  0  0  0  0  0
    5.5306  -93.4261   -0.0020 H   0  0  0  0  0  0  0  0  0  0  0  0
    7.7165  -85.8206    0.0018 H   0  0  0  0  0  0  0  0  0  0  0  0
    8.2227  -87.1401   -0.8157 H   0  0  0  0  0  0  0  0  0  0  0  0
    8.2232  -87.1413    0.8171 H   0  0  0  0  0  0  0  0  0  0  0  0
  1  2  2  0  0  0  0
  3  4  1  0  0  0  0
  1  6  1  0  0  0  0
  2  5  1  0  0  0  0
  5  3  2  0  0  0  0
  4  6  2  0  0  0  0
  6  7  1  0  0  0  0
  5  8  1  0  0  0  0
  7  9  1  0  0  0  0
  1 10  1  0  0  0  0
  2 11  1  0  0  0  0
  3 12  1  0  0  0  0
  4 13  1  0  0  0  0
  8 14  1  0  0  0  0
  8 15  1  0  0  0  0
  9 16  1  0  0  0  0
  9 17  1  0  0  0  0
  9 18  1  0  0  0  0
M  END
>  <Substance ID> (95)
95

>  <Mouse_Female_Canc> (95)
1

>  <SAL> (95)
3

>  <Rat_Male_Canc> (95)
2

>  <TD50_Rat> (95)
NP

>  <TD50_Mouse> (95)
NP

>  <Rat_Female_Canc> (95)
1

>  <Canc> (95)
2

>  <MolWeight> (95)
159.62

>  <Mouse_Male_Canc> (95)
1

>  <Mouse_Male_NTP> (95)
ND

>  <ChemName> (95)
p-Anisidine Hydrochloride

>  <Rat_Male_NTP> (95)
ND

>  <Reference> (95)
NTP116

>  <Formula> (95)
C7H10ClNO

>  <SMILES> (95)
OCc1ccc(N)cc1.Cl

>  <Rat_Female_NTP> (95)
ND

>  <CAS> (95)
20265-97-8

>  <Mouse_Female_NTP> (95)
ND

>  <Synonyms> (95)
1-amino-4-methoxybenzene hydrochloride; p-aminoanisole hydrochloride; p-Anisidinium chloride; p-anisylamine hydrochloride; 4-methoxy-1-aminobenzene hydrochloride; p-methoxyanilinium chloride; 4-methoxy-aniline hydrochloride; p-anisidine monohydrochloride; p-methoxyphenylamine hydrochloride.

$$$$
96


 17 17  0  0  0  0  0  0  0  0999 V2000
   26.2363   -3.7462   -0.0003 C   0  0  0  0  0  0  0  0  0  0  0  0
   26.2622   -5.0781   -0.0003 C   0  0  0  0  0  0  0  0  0  0  0  0
   28.6836   -5.0993   -0.0015 C   0  0  0  0  0  0  0  0  0  0  0  0
   28.6570   -3.6321   -0.0000 C   0  0  0  0  0  0  0  0  0  0  0  0
   27.5436   -5.7857   -0.0007 C   0  0  0  0  0  0  0  0  0  0  0  0
   27.4907   -2.9884    0.0004 C   0  0  0  0  0  0  0  0  0  0  0  0
   29.9023   -5.7790   -0.0006 N   0  0  0  0  0  0  0  0  0  0  0  0
   29.9082   -2.8739    0.0005 C   0  0  0  0  0  0  0  0  0  0  0  0
   31.1298   -3.5384   -0.0000 O   0  0  0  0  0  0  0  0  0  0  0  0
   29.8799   -1.6386   -0.0001 O   0  0  0  0  0  0  0  0  0  0  0  0
   30.9726   -4.5259    0.0006 H   0  0  0  0  0  0  0  0  0  0  0  0
   25.3607   -3.2633   -0.0007 H   0  0  0  0  0  0  0  0  0  0  0  0
   25.4059   -5.5946    0.0001 H   0  0  0  0  0  0  0  0  0  0  0  0
   27.5624   -6.7855   -0.0004 H   0  0  0  0  0  0  0  0  0  0  0  0
   27.4711   -1.9886    0.0013 H   0  0  0  0  0  0  0  0  0  0  0  0
   29.9172   -6.7789   -0.0016 H   0  0  0  0  0  0  0  0  0  0  0  0
   30.7608   -5.2662    0.0011 H   0  0  0  0  0  0  0  0  0  0  0  0
  8  9  1  0  0  0  0
  8 10  2  0  0  0  0
  9 11  1  0  0  0  0
  1  2  2  0  0  0  0
  3  4  1  0  0  0  0
  1  6  1  0  0  0  0
  2  5  1  0  0  0  0
  5  3  2  0  0  0  0
  4  6  2  0  0  0  0
  3  7  1  0  0  0  0
  4  8  1  0  0  0  0
  1 12  1  0  0  0  0
  2 13  1  0  0  0  0
  5 14  1  0  0  0  0
  6 15  1  0  0  0  0
  7 16  1  0  0  0  0
  7 17  1  0  0  0  0
M  END
>  <Substance ID> (96)
96

>  <Mouse_Female_Canc> (96)
1

>  <SAL> (96)
1

>  <Rat_Male_Canc> (96)
1

>  <TD50_Rat> (96)
NP

>  <TD50_Mouse> (96)
NP

>  <Rat_Female_Canc> (96)
1

>  <Canc> (96)
1

>  <MolWeight> (96)
137.14

>  <Mouse_Male_Canc> (96)
1

>  <Mouse_Male_NTP> (96)
ND

>  <ChemName> (96)
o-Anthranilic Acid 

>  <Rat_Male_NTP> (96)
ND

>  <Reference> (96)
NTP36

>  <Formula> (96)
C7H7NO2

>  <SMILES> (96)
NC1=C(C=CC=C1)C(=O)O

>  <Rat_Female_NTP> (96)
ND

>  <CAS> (96)
118-92-3

>  <Mouse_Female_NTP> (96)
ND

>  <Synonyms> (96)
1-amino-2-carboxybenzene; 2-Aminobenzoic Acid; o-carboxyaniline; Aminobenzoic acid; Anthranilic acid; Carboxyaniline; Vitamin L; Vitamin L1.

$$$$
97


 40 40  0  0  0  0  0  0  0  0999 V2000
   28.1368  -15.4627    0.0059 C   0  0  0  0  0  0  0  0  0  0  0  0
   28.2444  -16.7831    0.1400 C   0  0  0  0  0  0  0  0  0  0  0  0
   30.6463  -16.7041    0.1353 C   0  0  0  0  0  0  0  0  0  0  0  0
   30.6070  -15.2437   -0.0119 C   0  0  0  0  0  0  0  0  0  0  0  0
   29.5364  -17.4261    0.2097 C   0  0  0  0  0  0  0  0  0  0  0  0
   29.4044  -14.6219   -0.0705 C   0  0  0  0  0  0  0  0  0  0  0  0
   26.6911  -14.9010   -0.0608 C   0  0  0  0  0  0  0  0  0  0  0  0
   32.0024  -14.5452   -0.0799 C   0  0  0  0  0  0  0  0  0  0  0  0
   29.3143  -13.2432   -0.1945 O   0  0  0  0  0  0  0  0  0  0  0  0
   26.5340  -13.3942   -0.3521 C   0  0  0  0  0  0  0  0  0  0  0  0
   26.0031  -15.2285    1.2770 C   0  0  0  0  0  0  0  0  0  0  0  0
   25.9174  -15.7088   -1.1207 C   0  0  0  0  0  0  0  0  0  0  0  0
   32.0531  -13.0314   -0.3982 C   0  0  0  0  0  0  0  0  0  0  0  0
   32.7018  -14.7914    1.2689 C   0  0  0  0  0  0  0  0  0  0  0  0
   32.8540  -15.3052   -1.1141 C   0  0  0  0  0  0  0  0  0  0  0  0
   29.6225  -18.9156    0.3656 C   0  0  0  0  0  0  0  0  0  0  0  0
   27.4156  -17.3401    0.1934 H   0  0  0  0  0  0  0  0  0  0  0  0
   31.5322  -17.1658    0.1807 H   0  0  0  0  0  0  0  0  0  0  0  0
   30.2332  -12.8505   -0.2304 H   0  0  0  0  0  0  0  0  0  0  0  0
   25.5628  -13.1570   -0.3694 H   0  0  0  0  0  0  0  0  0  0  0  0
   26.9446  -13.1810   -1.2387 H   0  0  0  0  0  0  0  0  0  0  0  0
   26.9929  -12.8664    0.3628 H   0  0  0  0  0  0  0  0  0  0  0  0
   25.0666  -14.8783    1.2653 H   0  0  0  0  0  0  0  0  0  0  0  0
   26.5091  -14.8008    2.0261 H   0  0  0  0  0  0  0  0  0  0  0  0
   25.9863  -16.2195    1.4099 H   0  0  0  0  0  0  0  0  0  0  0  0
   24.9802  -15.3657   -1.1834 H   0  0  0  0  0  0  0  0  0  0  0  0
   25.9017  -16.6738   -0.8590 H   0  0  0  0  0  0  0  0  0  0  0  0
   26.3674  -15.6118   -2.0084 H   0  0  0  0  0  0  0  0  0  0  0  0
   33.0046  -12.7242   -0.4087 H   0  0  0  0  0  0  0  0  0  0  0  0
   31.5479  -12.5261    0.3014 H   0  0  0  0  0  0  0  0  0  0  0  0
   31.6395  -12.8645   -1.2933 H   0  0  0  0  0  0  0  0  0  0  0  0
   33.6023  -14.3567    1.2622 H   0  0  0  0  0  0  0  0  0  0  0  0
   32.8081  -15.7750    1.4151 H   0  0  0  0  0  0  0  0  0  0  0  0
   32.1500  -14.4028    2.0069 H   0  0  0  0  0  0  0  0  0  0  0  0
   33.7567  -14.8800   -1.1804 H   0  0  0  0  0  0  0  0  0  0  0  0
   32.4039  -15.2717   -2.0065 H   0  0  0  0  0  0  0  0  0  0  0  0
   32.9552  -16.2580   -0.8277 H   0  0  0  0  0  0  0  0  0  0  0  0
   30.5827  -19.1930    0.3964 H   0  0  0  0  0  0  0  0  0  0  0  0
   29.1727  -19.3589   -0.4098 H   0  0  0  0  0  0  0  0  0  0  0  0
   29.1696  -19.1891    1.2141 H   0  0  0  0  0  0  0  0  0  0  0  0
  1  2  2  0  0  0  0
  3  4  1  0  0  0  0
  1  6  1  0  0  0  0
  2  5  1  0  0  0  0
  5  3  2  0  0  0  0
  4  6  2  0  0  0  0
  1  7  1  0  0  0  0
  4  8  1  0  0  0  0
  6  9  1  0  0  0  0
  7 10  1  0  0  0  0
  7 11  1  0  0  0  0
  7 12  1  0  0  0  0
  8 13  1  0  0  0  0
  8 14  1  0  0  0  0
  8 15  1  0  0  0  0
  5 16  1  0  0  0  0
  2 17  1  0  0  0  0
  3 18  1  0  0  0  0
  9 19  1  0  0  0  0
 10 20  1  0  0  0  0
 10 21  1  0  0  0  0
 10 22  1  0  0  0  0
 11 23  1  0  0  0  0
 11 24  1  0  0  0  0
 11 25  1  0  0  0  0
 12 26  1  0  0  0  0
 12 27  1  0  0  0  0
 12 28  1  0  0  0  0
 13 29  1  0  0  0  0
 13 30  1  0  0  0  0
 13 31  1  0  0  0  0
 14 32  1  0  0  0  0
 14 33  1  0  0  0  0
 14 34  1  0  0  0  0
 15 35  1  0  0  0  0
 15 36  1  0  0  0  0
 15 37  1  0  0  0  0
 16 38  1  0  0  0  0
 16 39  1  0  0  0  0
 16 40  1  0  0  0  0
M  END
>  <Substance ID> (97)
97

>  <Mouse_Female_Canc> (97)
1

>  <SAL> (97)
1

>  <Rat_Male_Canc> (97)
1

>  <TD50_Rat> (97)
NP

>  <TD50_Mouse> (97)
NP

>  <Rat_Female_Canc> (97)
1

>  <Canc> (97)
1

>  <MolWeight> (97)
220.35

>  <Mouse_Male_Canc> (97)
1

>  <Mouse_Male_NTP> (97)
ND

>  <ChemName> (97)
Butylated Hydroxytoluene

>  <Rat_Male_NTP> (97)
ND

>  <Reference> (97)
NTP150

>  <Formula> (97)
C15H24O

>  <SMILES> (97)
OC1=C(C=C(C=C1C(C)(C)C)C)C(C)(C)C

>  <Rat_Female_NTP> (97)
ND

>  <CAS> (97)
128-37-0

>  <Mouse_Female_NTP> (97)
ND

>  <Synonyms> (97)
2,6-Bis(1,1-dimethylethyl)-4-methylphenol; 2,6-Di-tert-Butyl-1-Hydroxy-4-Methylbenzene; 2,6-Di-tert-Butyl-4-Methylphenol; 2,6-Di-tert-Butyl-p-Cresol; 3,5-Di-tert-Butyl-4-Hydroxytoluene; 4-Hydroxy-3,5-Di-tert-Butyltoluene; 4-Methyl-2,6-di-t-butyl-phenol; Annulex BHT; Antracine 8; BHT; Dibutylated Hydroxytoluene; BUTYLATED HYDROXYTOLUENE CRYSTALLINE; Butylhydroxytoluene; Catalin CAO-3; Dalpac; DBPC; Embanox BHT; Hydagen DEO; Impruvol; Ionol CP; Sustane; Tenox BHT; Topanol; Topanol OC and 0; Vianol.

$$$$
98


 25 24  0  0  0  0  0  0  0  0999 V2000
   33.6461  -24.2171   -0.0822 N   0  0  0  0  0  0  0  0  0  0  0  0
   34.9739  -24.6621    0.0709 C   0  0  0  0  0  0  0  0  0  0  0  0
   35.2242  -25.8326    0.3786 O   0  0  0  0  0  0  0  0  0  0  0  0
   36.0256  -23.7665   -0.1335 N   0  0  0  0  0  0  0  0  0  0  0  0
   32.5343  -25.0601    0.1170 C   0  0  0  0  0  0  0  0  0  0  0  0
   32.6719  -26.2336    0.4788 O   0  0  0  0  0  0  0  0  0  0  0  0
   31.1607  -24.5249   -0.1232 C   0  0  0  0  0  0  0  0  0  0  0  0
   31.2833  -22.9349   -1.2256 Br  0  0  0  0  0  0  0  0  0  0  0  0
   30.6145  -24.1218    1.3097 C   0  0  0  0  0  0  0  0  0  0  0  0
   30.3539  -25.6865   -0.8405 C   0  0  0  0  0  0  0  0  0  0  0  0
   29.2338  -23.4173    1.3467 C   0  0  0  0  0  0  0  0  0  0  0  0
   28.9124  -25.3468   -1.2962 C   0  0  0  0  0  0  0  0  0  0  0  0
   33.4861  -23.2649   -0.3427 H   0  0  0  0  0  0  0  0  0  0  0  0
   36.9714  -24.0733   -0.0271 H   0  0  0  0  0  0  0  0  0  0  0  0
   35.8329  -22.8184   -0.3863 H   0  0  0  0  0  0  0  0  0  0  0  0
   30.5445  -24.9573    1.8549 H   0  0  0  0  0  0  0  0  0  0  0  0
   31.2819  -23.5055    1.7275 H   0  0  0  0  0  0  0  0  0  0  0  0
   30.8719  -25.9608   -1.6507 H   0  0  0  0  0  0  0  0  0  0  0  0
   30.2980  -26.4556   -0.2038 H   0  0  0  0  0  0  0  0  0  0  0  0
   28.9899  -23.2103    2.2941 H   0  0  0  0  0  0  0  0  0  0  0  0
   28.5412  -24.0189    0.9485 H   0  0  0  0  0  0  0  0  0  0  0  0
   29.2784  -22.5676    0.8213 H   0  0  0  0  0  0  0  0  0  0  0  0
   28.5028  -26.1478   -1.7326 H   0  0  0  0  0  0  0  0  0  0  0  0
   28.9383  -24.5892   -1.9484 H   0  0  0  0  0  0  0  0  0  0  0  0
   28.3645  -25.0838   -0.5020 H   0  0  0  0  0  0  0  0  0  0  0  0
  1  2  1  0  0  0  0
  2  3  2  0  0  0  0
  2  4  1  0  0  0  0
  5  6  2  0  0  0  0
  5  1  1  0  0  0  0
  5  7  1  0  0  0  0
  7  8  1  0  0  0  0
  7  9  1  0  0  0  0
  7 10  1  0  0  0  0
  9 11  1  0  0  0  0
 10 12  1  0  0  0  0
  1 13  1  0  0  0  0
  4 14  1  0  0  0  0
  4 15  1  0  0  0  0
  9 16  1  0  0  0  0
  9 17  1  0  0  0  0
 10 18  1  0  0  0  0
 10 19  1  0  0  0  0
 11 20  1  0  0  0  0
 11 21  1  0  0  0  0
 11 22  1  0  0  0  0
 12 23  1  0  0  0  0
 12 24  1  0  0  0  0
 12 25  1  0  0  0  0
M  END
>  <Substance ID> (98)
98

>  <Mouse_Female_Canc> (98)
1

>  <SAL> (98)
1

>  <Rat_Male_Canc> (98)
1

>  <TD50_Rat> (98)
NP

>  <TD50_Mouse> (98)
NP

>  <Rat_Female_Canc> (98)
1

>  <Canc> (98)
1

>  <MolWeight> (98)
237.10

>  <Mouse_Male_Canc> (98)
1

>  <Mouse_Male_NTP> (98)
ND

>  <ChemName> (98)
Carbromal

>  <Rat_Male_NTP> (98)
ND

>  <Reference> (98)
NTP173

>  <Formula> (98)
C7H13BrN2O2

>  <SMILES> (98)
BrC(C(=O)NC(=O)N)(CC)CC

>  <Rat_Female_NTP> (98)
ND

>  <CAS> (98)
77-65-6

>  <Mouse_Female_NTP> (98)
ND

>  <Synonyms> (98)
1-bromo-ethyl-butyryl-urea; 2-bromo-2-ethylbutyrylurea; tildin; uradal; (alpha-bromo-alpha-ethylbutyryl)carbamide; (alpha-bromo-alpha-ethylbutyryl)urea; adalin; addisomnol; diacid; bromacetocarbamide; bromadal; Bromadal - Carc.; bromadel; bromodiethylacetylcarbamide; Bromodiethylacetylurea; dormiturin; fydalin; hoggar; karbromal; kartryl; N-(aminocarbonyl)-2-bromo-2-ethylbutanamide; nenesin; nyctal; parkosed; pelidorm; pianadalin; planadalin.

$$$$
99


 24 24  0  0  0  0  0  0  0  0999 V2000
   34.1257  -32.8583   -0.0016 C   0  0  0  0  0  0  0  0  0  0  0  0
   35.5832  -32.8377    0.0001 C   0  0  0  0  0  0  0  0  0  0  0  0
   36.3446  -34.1297    0.0000 C   0  0  0  0  0  0  0  0  0  0  0  0
   38.0767  -33.8001    0.0005 Cl  0  0  0  0  0  0  0  0  0  0  0  0
   36.1873  -31.7587    0.0004 O   0  0  0  0  0  0  0  0  0  0  0  0
   33.4529  -31.7138    0.0022 C   0  0  0  0  0  0  0  0  0  0  0  0
   31.3356  -32.8901   -0.0011 C   0  0  0  0  0  0  0  0  0  0  0  0
   32.0755  -34.1499   -0.0046 C   0  0  0  0  0  0  0  0  0  0  0  0
   32.0049  -31.7364    0.0026 C   0  0  0  0  0  0  0  0  0  0  0  0
   33.4070  -34.1340   -0.0032 C   0  0  0  0  0  0  0  0  0  0  0  0
   29.9215  -32.9198   -0.0023 N   0  0  0  0  0  0  0  0  0  0  0  0
   29.1192  -31.7489    0.0017 C   0  0  0  0  0  0  0  0  0  0  0  0
   27.6307  -31.8803    0.0032 C   0  0  0  0  0  0  0  0  0  0  0  0
   29.6151  -30.6165    0.0037 O   0  0  0  0  0  0  0  0  0  0  0  0
   36.1064  -34.6556    0.8165 H   0  0  0  0  0  0  0  0  0  0  0  0
   36.1068  -34.6553   -0.8168 H   0  0  0  0  0  0  0  0  0  0  0  0
   33.9427  -30.8419    0.0048 H   0  0  0  0  0  0  0  0  0  0  0  0
   31.5839  -35.0207   -0.0082 H   0  0  0  0  0  0  0  0  0  0  0  0
   31.4990  -30.8737    0.0057 H   0  0  0  0  0  0  0  0  0  0  0  0
   33.9168  -34.9944   -0.0032 H   0  0  0  0  0  0  0  0  0  0  0  0
   29.4646  -33.8093   -0.0061 H   0  0  0  0  0  0  0  0  0  0  0  0
   27.2153  -30.9707    0.0060 H   0  0  0  0  0  0  0  0  0  0  0  0
   27.3407  -32.3812    0.8187 H   0  0  0  0  0  0  0  0  0  0  0  0
   27.3387  -32.3770   -0.8141 H   0  0  0  0  0  0  0  0  0  0  0  0
  1  2  1  0  0  0  0
  2  3  1  0  0  0  0
  3  4  1  0  0  0  0
  2  5  2  0  0  0  0
  1  6  2  0  0  0  0
  7  8  1  0  0  0  0
  1 10  1  0  0  0  0
  6  9  1  0  0  0  0
  9  7  2  0  0  0  0
  8 10  2  0  0  0  0
  7 11  1  0  0  0  0
 11 12  1  0  0  0  0
 12 13  1  0  0  0  0
 12 14  2  0  0  0  0
  3 15  1  0  0  0  0
  3 16  1  0  0  0  0
  6 17  1  0  0  0  0
  8 18  1  0  0  0  0
  9 19  1  0  0  0  0
 10 20  1  0  0  0  0
 11 21  1  0  0  0  0
 13 22  1  0  0  0  0
 13 23  1  0  0  0  0
 13 24  1  0  0  0  0
M  END
>  <Substance ID> (99)
99

>  <Mouse_Female_Canc> (99)
1

>  <SAL> (99)
3

>  <Rat_Male_Canc> (99)
1

>  <TD50_Rat> (99)
NP

>  <TD50_Mouse> (99)
NP

>  <Rat_Female_Canc> (99)
1

>  <Canc> (99)
1

>  <MolWeight> (99)
211.65

>  <Mouse_Male_Canc> (99)
1

>  <Mouse_Male_NTP> (99)
ND

>  <ChemName> (99)
4'-(Chloroacetyl)-Acetanilide

>  <Rat_Male_NTP> (99)
ND

>  <Reference> (99)
NTP177

>  <Formula> (99)
C10H10ClNO2

>  <SMILES> (99)
ClCC(=O)C1=CC=C(NC(=O)C)C=C1

>  <Rat_Female_NTP> (99)
ND

>  <CAS> (99)
140-49-8

>  <Mouse_Female_NTP> (99)
ND

>  <Synonyms> (99)
p-acetamidophenacyl chloride; p-(acetylamino)phenacyl chloride; 4'-(Chloroacetyl)-acetanilide; Acetamide, N-[4-(chloroacetyl)phenyl]-.

$$$$
100


 20 19  0  0  0  0  0  0  0  0999 V2000
   37.7132  -38.9656    0.0678 N   0  3  0  0  0  0  0  0  0  1  0  0
   36.4561  -39.0791    0.8769 C   0  0  0  0  0  0  0  0  0  2  0  0
   35.1321  -38.8475    0.0699 C   0  0  0  0  0  0  0  0  0  3  0  0
   34.8951  -37.1672   -0.4423 Cl  0  0  0  0  0  0  0  0  0  4  0  0
   37.9433  -37.6062   -0.4467 C   0  0  0  0  0  0  0  0  0  5  0  0
   38.8471  -39.3175    0.9305 C   0  0  0  0  0  0  0  0  0  6  0  0
   37.6591  -39.9120   -1.0565 C   0  0  0  0  0  0  0  0  0  7  0  0
   36.4227  -39.9969    1.2725 H   0  0  0  0  0  0  0  0  0  8  0  0
   36.4960  -38.4006    1.6104 H   0  0  0  0  0  0  0  0  0  9  0  0
   35.1542  -39.4259   -0.7456 H   0  0  0  0  0  0  0  0  0 10  0  0
   34.3600  -39.1135    0.6470 H   0  0  0  0  0  0  0  0  0 11  0  0
   38.7913  -37.5888   -0.9763 H   0  0  0  0  0  0  0  0  0 12  0  0
   38.0160  -36.9673    0.3191 H   0  0  0  0  0  0  0  0  0 13  0  0
   37.1791  -37.3375   -1.0331 H   0  0  0  0  0  0  0  0  0 14  0  0
   39.6974  -39.2480    0.4089 H   0  0  0  0  0  0  0  0  0 15  0  0
   38.7358  -40.2542    1.2624 H   0  0  0  0  0  0  0  0  0 16  0  0
   38.8817  -38.6904    1.7086 H   0  0  0  0  0  0  0  0  0 17  0  0
   38.4973  -39.8369   -1.5966 H   0  0  0  0  0  0  0  0  0 18  0  0
   36.8708  -39.6996   -1.6340 H   0  0  0  0  0  0  0  0  0 19  0  0
   37.5725  -40.8440   -0.7044 H   0  0  0  0  0  0  0  0  0 20  0  0
  1  2  1  0  0  0  0
  2  3  1  0  0  0  0
  3  4  1  0  0  0  0
  1  5  1  0  0  0  0
  1  6  1  0  0  0  0
  1  7  1  0  0  0  0
  2  8  1  0  0  0  0
  2  9  1  0  0  0  0
  3 10  1  0  0  0  0
  3 11  1  0  0  0  0
  5 12  1  0  0  0  0
  5 13  1  0  0  0  0
  5 14  1  0  0  0  0
  6 15  1  0  0  0  0
  6 16  1  0  0  0  0
  6 17  1  0  0  0  0
  7 18  1  0  0  0  0
  7 19  1  0  0  0  0
  7 20  1  0  0  0  0
M  END
>  <Substance ID> (100)
100

>  <Mouse_Female_Canc> (100)
1

>  <SAL> (100)
1

>  <Rat_Male_Canc> (100)
1

>  <TD50_Rat> (100)
NP

>  <TD50_Mouse> (100)
NP

>  <Rat_Female_Canc> (100)
1

>  <Canc> (100)
1

>  <MolWeight> (100)
158.07

>  <Mouse_Male_Canc> (100)
1

>  <Mouse_Male_NTP> (100)
ND

>  <ChemName> (100)
(2-Chloroethyl)trimethylammonium Chloride

>  <Rat_Male_NTP> (100)
ND

>  <Reference> (100)
NTP158

>  <Formula> (100)
C5H13Cl2N 

>  <SMILES> (100)
[Cl-].C[N+](C)(C)CCCl

>  <Rat_Female_NTP> (100)
ND

>  <CAS> (100)
999-81-5

>  <Mouse_Female_NTP> (100)
ND

>  <Synonyms> (100)
2-Chloro-N,N,N-trimethylethanaminium chloride; stabilan; Trimethyl-beta-chlorethylammonium chloride; TUR; 60-cs-16; ac 38555; Antwylegacz; antywylegacz; (beta-chloroethyl)trimethylammonium chloride; CCC; ccc plant growth regulant; Ccc plant growth regulator; Chlorocholine Chloride; Chloroethyl trimethyl ammonium chloride; chlormequat; Chlormequat chloride; choline dichloride; cyclocel; cycocel; cycogan; cyocel; ei 38,555; hico ccc; hormocel-2ccc; increcel; lihocin; retacel; Retacil.

$$$$
101


 14 14  0  0  0  0  0  0  0  0999 V2000
   31.6745  -47.8553    0.0000 C   0  0  0  0  0  0  0  0  0  0  0  0
   31.7028  -49.1868    0.0005 C   0  0  0  0  0  0  0  0  0  0  0  0
   34.0983  -49.1490   -0.0001 C   0  0  0  0  0  0  0  0  0  0  0  0
   34.0056  -47.6881    0.0001 C   0  0  0  0  0  0  0  0  0  0  0  0
   32.9845  -49.8726   -0.0001 C   0  0  0  0  0  0  0  0  0  0  0  0
   32.8685  -47.1133   -0.0010 N   0  0  0  0  0  0  0  0  0  0  0  0
   35.2593  -46.8621    0.0015 C   0  0  0  0  0  0  0  0  0  0  0  0
   36.6687  -47.9282   -0.0003 Cl  0  0  0  0  0  0  0  0  0  0  0  0
   30.7954  -47.3787    0.0004 H   0  0  0  0  0  0  0  0  0  0  0  0
   30.8505  -49.7098    0.0013 H   0  0  0  0  0  0  0  0  0  0  0  0
   34.9918  -49.5979   -0.0002 H   0  0  0  0  0  0  0  0  0  0  0  0
   33.0270  -50.8717   -0.0006 H   0  0  0  0  0  0  0  0  0  0  0  0
   35.2780  -46.2839   -0.8143 H   0  0  0  0  0  0  0  0  0  0  0  0
   35.2780  -46.2866    0.8190 H   0  0  0  0  0  0  0  0  0  0  0  0
  1  2  2  0  0  0  0
  3  4  1  0  0  0  0
  1  6  1  0  0  0  0
  2  5  1  0  0  0  0
  5  3  2  0  0  0  0
  4  6  2  0  0  0  0
  4  7  1  0  0  0  0
  7  8  1  0  0  0  0
  1  9  1  0  0  0  0
  2 10  1  0  0  0  0
  3 11  1  0  0  0  0
  5 12  1  0  0  0  0
  7 13  1  0  0  0  0
  7 14  1  0  0  0  0
M  END
>  <Substance ID> (101)
101

>  <Mouse_Female_Canc> (101)
1

>  <SAL> (101)
3

>  <Rat_Male_Canc> (101)
1

>  <TD50_Rat> (101)
NP

>  <TD50_Mouse> (101)
NP

>  <Rat_Female_Canc> (101)
1

>  <Canc> (101)
1

>  <MolWeight> (101)
127.57

>  <Mouse_Male_Canc> (101)
1

>  <Mouse_Male_NTP> (101)
ND

>  <ChemName> (101)
2-(Chloromethyl)Pyridine Hydrochloride

>  <Rat_Male_NTP> (101)
ND

>  <Reference> (101)
NTP178

>  <Formula> (101)
C6H6ClN

>  <SMILES> (101)
ClCc1ccccn1

>  <Rat_Female_NTP> (101)
ND

>  <CAS> (101)
6959-47-3

>  <Mouse_Female_NTP> (101)
ND

>  <Synonyms> (101)
2-(Chloromethyl)pyridinium chloride; 2-Picolyl chloride hydrochloride; 2-pyridylmethylchloride hydrochloride.

$$$$
102


 23 22  0  0  0  0  0  0  0  0999 V2000
    8.2874   -5.8510   -0.0005 Cl  0  0  0  0  0  0  0  0  0  0  0  0
    7.4184   -4.3569   -0.0004 C   0  0  0  0  0  0  0  0  0  0  0  0
    8.1462   -3.0882    0.0004 C   0  0  0  0  0  0  0  0  0  0  0  0
    7.4772   -1.9366    0.0006 C   0  0  0  0  0  0  0  0  0  0  0  0
    8.1713   -0.7251    0.0003 N   0  0  0  0  0  0  0  0  0  0  0  0
    6.0144   -1.9405    0.0003 C   0  0  0  0  0  0  0  0  0  0  0  0
    5.3516   -3.0960    0.0004 C   0  0  0  0  0  0  0  0  0  0  0  0
    6.0873   -4.3611    0.0004 C   0  0  0  0  0  0  0  0  0  0  0  0
    5.3934   -5.5722    0.0006 N   0  0  0  0  0  0  0  0  0  0  0  0
    9.1462   -3.0855    0.0007 H   0  0  0  0  0  0  0  0  0  0  0  0
    7.6685    0.1393    0.0004 H   0  0  0  0  0  0  0  0  0  0  0  0
    9.1713   -0.7218   -0.0001 H   0  0  0  0  0  0  0  0  0  0  0  0
    5.5120   -1.0758   -0.0000 H   0  0  0  0  0  0  0  0  0  0  0  0
    4.3516   -3.0990    0.0004 H   0  0  0  0  0  0  0  0  0  0  0  0
    4.3934   -5.5755    0.0011 H   0  0  0  0  0  0  0  0  0  0  0  0
    5.8962   -6.4365    0.0003 H   0  0  0  0  0  0  0  0  0  0  0  0
    1.9157   -3.1586    0.0002 S   0  0  0  0  0  0  0  0  0  0  0  0
    0.7108   -3.1916    0.9212 O   0  0  0  0  0  0  0  0  0  0  0  0
    1.8821   -4.3642   -0.9198 O   0  0  0  0  0  0  0  0  0  0  0  0
    3.3395   -3.1936    0.9284 O   0  0  0  0  0  0  0  0  0  0  0  0
    1.8799   -1.7354   -0.9290 O   0  0  0  0  0  0  0  0  0  0  0  0
    4.1341   -3.1718    0.3217 H   0  0  0  0  0  0  0  0  0  0  0  0
    2.6741   -1.7132   -1.5363 H   0  0  0  0  0  0  0  0  0  0  0  0
  1  2  1  0  0  0  0
  2  3  1  0  0  0  0
  2  8  2  0  0  0  0
  3  4  2  0  0  0  0
  4  5  1  0  0  0  0
  4  6  1  0  0  0  0
  6  7  2  0  0  0  0
  7  8  1  0  0  0  0
  8  9  1  0  0  0  0
  3 10  1  0  0  0  0
  5 11  1  0  0  0  0
  5 12  1  0  0  0  0
  6 13  1  0  0  0  0
  7 14  1  0  0  0  0
  9 15  1  0  0  0  0
  9 16  1  0  0  0  0
 17 18  2  0  0  0  0
 17 19  2  0  0  0  0
 17 20  1  0  0  0  0
 17 21  1  0  0  0  0
 20 22  1  0  0  0  0
 21 23  1  0  0  0  0
M  END
>  <Substance ID> (102)
102

>  <Mouse_Female_Canc> (102)
1

>  <SAL> (102)
3

>  <Rat_Male_Canc> (102)
1

>  <TD50_Rat> (102)
NP

>  <TD50_Mouse> (102)
NP

>  <Rat_Female_Canc> (102)
1

>  <Canc> (102)
1

>  <MolWeight> (102)
240.66

>  <Mouse_Male_Canc> (102)
1

>  <Mouse_Male_NTP> (102)
ND

>  <ChemName> (102)
2-Chloro-1,4-Benzenediamine Sulfate (1:1)

>  <Rat_Male_NTP> (102)
ND

>  <Reference> (102)
NTP113

>  <Formula> (102)
C6H9ClN2O4S

>  <SMILES> (102)
Clc1cc(N)ccc1N.S(=O)(=O)(O)(O)

>  <Rat_Female_NTP> (102)
ND

>  <CAS> (102)
61702-44-1

>  <Mouse_Female_NTP> (102)
ND

>  <Synonyms> (102)
2-chloro-1,4-phenylenediamine sulfate; 2-Chloro-p-phenylenediamine sulfate; C.I. 76066; C.I. oxidation base 13a; fourrine 81; fourrine so; renal brown so; renal so.

$$$$
103


 30 30  0  0  0  0  0  0  0  0999 V2000
   34.2981  -78.8993    0.8041 N   0  0  0  0  0  0  0  0  0  0  0  0
   32.9719  -78.8493    0.2265 C   0  0  0  0  0  0  0  0  0  0  0  0
   31.8733  -79.1628    1.2441 C   0  0  0  0  0  0  0  0  0  0  0  0
   39.7210  -78.7218   -0.2005 C   0  0  0  0  0  0  0  0  0  0  0  0
   40.3081  -79.9015    0.0404 C   0  0  0  0  0  0  0  0  0  0  0  0
   42.3776  -78.8078    0.6777 C   0  0  0  0  0  0  0  0  0  0  0  0
   41.7251  -77.5179    0.4310 C   0  0  0  0  0  0  0  0  0  0  0  0
   41.6969  -79.9393    0.5061 C   0  0  0  0  0  0  0  0  0  0  0  0
   40.4621  -77.4816    0.0188 C   0  0  0  0  0  0  0  0  0  0  0  0
   44.0298  -78.8558    1.1832 Cl  0  0  0  0  0  0  0  0  0  0  0  0
   38.0955  -78.6733   -0.8893 S   0  0  0  0  0  0  0  0  0  0  0  0
   37.9804  -77.3375   -1.6191 O   0  0  0  0  0  0  0  0  0  0  0  0
   38.0037  -79.8287   -1.8603 O   0  0  0  0  0  0  0  0  0  0  0  0
   36.7860  -78.8115    0.3200 N   0  0  0  0  0  0  0  0  0  0  0  0
   35.3647  -78.7786   -0.1023 C   0  0  0  0  0  0  0  0  0  0  0  0
   35.0648  -78.6438   -1.2945 O   0  0  0  0  0  0  0  0  0  0  0  0
   30.5126  -79.1118    0.5149 C   0  0  0  0  0  0  0  0  0  0  0  0
   34.4458  -79.0127    1.7866 H   0  0  0  0  0  0  0  0  0  0  0  0
   32.8167  -77.9316   -0.1393 H   0  0  0  0  0  0  0  0  0  0  0  0
   32.9207  -79.5175   -0.5157 H   0  0  0  0  0  0  0  0  0  0  0  0
   32.0177  -80.0748    1.6280 H   0  0  0  0  0  0  0  0  0  0  0  0
   31.8891  -78.4849    1.9791 H   0  0  0  0  0  0  0  0  0  0  0  0
   39.8010  -80.7524   -0.0968 H   0  0  0  0  0  0  0  0  0  0  0  0
   42.2299  -76.6664    0.5728 H   0  0  0  0  0  0  0  0  0  0  0  0
   42.1351  -80.8179    0.6957 H   0  0  0  0  0  0  0  0  0  0  0  0
   40.0165  -76.6010   -0.1422 H   0  0  0  0  0  0  0  0  0  0  0  0
   37.0136  -78.9118    1.2885 H   0  0  0  0  0  0  0  0  0  0  0  0
   29.7786  -79.3143    1.1632 H   0  0  0  0  0  0  0  0  0  0  0  0
   30.5027  -79.7887   -0.2211 H   0  0  0  0  0  0  0  0  0  0  0  0
   30.3742  -78.1993    0.1299 H   0  0  0  0  0  0  0  0  0  0  0  0
  1  2  1  0  0  0  0
  2  3  1  0  0  0  0
  4  5  2  0  0  0  0
  6  7  1  0  0  0  0
  4  9  1  0  0  0  0
  5  8  1  0  0  0  0
  8  6  2  0  0  0  0
  7  9  2  0  0  0  0
  6 10  1  0  0  0  0
  4 11  1  0  0  0  0
 11 12  2  0  0  0  0
 11 13  2  0  0  0  0
 11 14  1  0  0  0  0
 14 15  1  0  0  0  0
 15 16  2  0  0  0  0
 15  1  1  0  0  0  0
  3 17  1  0  0  0  0
  1 18  1  0  0  0  0
  2 19  1  0  0  0  0
  2 20  1  0  0  0  0
  3 21  1  0  0  0  0
  3 22  1  0  0  0  0
  5 23  1  0  0  0  0
  7 24  1  0  0  0  0
  8 25  1  0  0  0  0
  9 26  1  0  0  0  0
 14 27  1  0  0  0  0
 17 28  1  0  0  0  0
 17 29  1  0  0  0  0
 17 30  1  0  0  0  0
M  END
>  <Substance ID> (103)
103

>  <Mouse_Female_Canc> (103)
1

>  <SAL> (103)
1

>  <Rat_Male_Canc> (103)
1

>  <TD50_Rat> (103)
NP

>  <TD50_Mouse> (103)
NP

>  <Rat_Female_Canc> (103)
1

>  <Canc> (103)
1

>  <MolWeight> (103)
276.74

>  <Mouse_Male_Canc> (103)
1

>  <Mouse_Male_NTP> (103)
ND

>  <ChemName> (103)
Chlorpropamide

>  <Rat_Male_NTP> (103)
ND

>  <Reference> (103)
NTP45

>  <Formula> (103)
C10H13ClN2O3S

>  <SMILES> (103)
O=S(=O)(C1=CC=C(C=C1)Cl)NC(=O)NCCC

>  <Rat_Female_NTP> (103)
ND

>  <CAS> (103)
94-20-2

>  <Mouse_Female_NTP> (103)
ND

>  <Synonyms> (103)
1-(p-chlorobenzenesulfonyl)-3-propylurea; 1-(para-Chlorophenylsulfonyl)-3-propylurea; N-(p-chlorobenzenesulfonyl)-N'-propylurea; n-propyl-N'-(p-chlorobenzenesulfonyl)urea; n-propyl-N'-p-chlorophenylsulfonylcarbamide; oradian; stabinol; U-3818; 1-propyl-3-(p-chlorobenzenesulfonyl)urea; P 607; 4-chloro-N-((propylamino)carbonyl)benzenesulfonamide; adiaben; asucrol; diabaril; diabechlor; diabenal; diabenese; diabeneza; diabetoral; diabet-pages; Diabinese; catanil; chlorodiabina; chloronase; CHLORPROPAMIDE USP; glisema; Glucamide; meldian; melitase; millinese; N3-Butyl-N1-p-chlorobenzenesulfonylurea.

$$$$
104


 38 39  0  0  0  0  0  0  0  0999 V2000
   33.2279  -86.8136   -0.3901 P   0  0  0  0  0  0  0  0  0  0  0  0
   32.4041  -87.3525    0.7747 O   0  0  0  0  0  0  0  0  0  0  0  0
   33.5701  -87.9763   -1.3767 O   0  0  0  0  0  0  0  0  0  0  0  0
   32.2654  -85.6793   -1.1479 S   0  0  0  0  0  0  0  0  0  0  0  0
   31.0105  -86.9302    0.6515 C   0  0  0  0  0  0  0  0  0  0  0  0
   32.7641  -89.2070   -1.2697 C   0  0  0  0  0  0  0  0  0  0  0  0
   30.1245  -87.7687    1.5916 C   0  0  0  0  0  0  0  0  0  0  0  0
   33.1607  -90.0822   -0.0399 C   0  0  0  0  0  0  0  0  0  0  0  0
   34.5580  -86.0739    0.0727 O   0  0  0  0  0  0  0  0  0  0  0  0
   35.8269  -86.7877    0.0701 C   0  0  0  0  0  0  0  0  0  0  0  0
   35.9007  -88.0817   -0.2017 C   0  0  0  0  0  0  0  0  0  0  0  0
   38.2821  -88.1342   -0.0369 C   0  0  0  0  0  0  0  0  0  0  0  0
   38.2685  -86.7105    0.2847 C   0  0  0  0  0  0  0  0  0  0  0  0
   37.1481  -88.7812   -0.2554 C   0  0  0  0  0  0  0  0  0  0  0  0
   37.0954  -86.0626    0.3496 C   0  0  0  0  0  0  0  0  0  0  0  0
   39.4785  -86.0072    0.5173 O   0  0  0  0  0  0  0  0  0  0  0  0
   39.5133  -88.8524   -0.1300 C   0  0  0  0  0  0  0  0  0  0  0  0
   40.6564  -88.2182    0.0731 C   0  0  0  0  0  0  0  0  0  0  0  0
   40.6694  -86.7863    0.4008 C   0  0  0  0  0  0  0  0  0  0  0  0
   41.7609  -86.2358    0.5799 O   0  0  0  0  0  0  0  0  0  0  0  0
   42.1405  -89.0910   -0.0531 Cl  0  0  0  0  0  0  0  0  0  0  0  0
   39.5111  -90.3158   -0.4642 C   0  0  0  0  0  0  0  0  0  0  0  0
   30.9338  -85.9640    0.8977 H   0  0  0  0  0  0  0  0  0  0  0  0
   30.7071  -87.0592   -0.2926 H   0  0  0  0  0  0  0  0  0  0  0  0
   31.8010  -88.9520   -1.1833 H   0  0  0  0  0  0  0  0  0  0  0  0
   32.8931  -89.7471   -2.1013 H   0  0  0  0  0  0  0  0  0  0  0  0
   29.1727  -87.4754    1.5029 H   0  0  0  0  0  0  0  0  0  0  0  0
   30.4257  -87.6405    2.5365 H   0  0  0  0  0  0  0  0  0  0  0  0
   30.1992  -88.7353    1.3465 H   0  0  0  0  0  0  0  0  0  0  0  0
   32.5869  -90.9006   -0.0137 H   0  0  0  0  0  0  0  0  0  0  0  0
   33.0290  -89.5563    0.8004 H   0  0  0  0  0  0  0  0  0  0  0  0
   34.1208  -90.3511   -0.1174 H   0  0  0  0  0  0  0  0  0  0  0  0
   35.0558  -88.5875   -0.3755 H   0  0  0  0  0  0  0  0  0  0  0  0
   37.1630  -89.7603   -0.4582 H   0  0  0  0  0  0  0  0  0  0  0  0
   37.0738  -85.0913    0.5861 H   0  0  0  0  0  0  0  0  0  0  0  0
   40.4518  -90.6544   -0.4873 H   0  0  0  0  0  0  0  0  0  0  0  0
   39.0858  -90.4533   -1.3588 H   0  0  0  0  0  0  0  0  0  0  0  0
   38.9943  -90.8161    0.2305 H   0  0  0  0  0  0  0  0  0  0  0  0
  1  2  1  0  0  0  0
  1  3  1  0  0  0  0
  1  4  2  0  0  0  0
  2  5  1  0  0  0  0
  3  6  1  0  0  0  0
  5  7  1  0  0  0  0
  6  8  1  0  0  0  0
  1  9  1  0  0  0  0
  9 10  1  0  0  0  0
 10 11  2  0  0  0  0
 12 13  1  0  0  0  0
 10 15  1  0  0  0  0
 11 14  1  0  0  0  0
 14 12  2  0  0  0  0
 13 15  2  0  0  0  0
 13 16  1  0  0  0  0
 12 17  1  0  0  0  0
 17 18  2  0  0  0  0
 18 19  1  0  0  0  0
 16 19  1  0  0  0  0
 19 20  2  0  0  0  0
 18 21  1  0  0  0  0
 17 22  1  0  0  0  0
  5 23  1  0  0  0  0
  5 24  1  0  0  0  0
  6 25  1  0  0  0  0
  6 26  1  0  0  0  0
  7 27  1  0  0  0  0
  7 28  1  0  0  0  0
  7 29  1  0  0  0  0
  8 30  1  0  0  0  0
  8 31  1  0  0  0  0
  8 32  1  0  0  0  0
 11 33  1  0  0  0  0
 14 34  1  0  0  0  0
 15 35  1  0  0  0  0
 22 36  1  0  0  0  0
 22 37  1  0  0  0  0
 22 38  1  0  0  0  0
M  END
>  <Substance ID> (104)
104

>  <Mouse_Female_Canc> (104)
1

>  <SAL> (104)
1

>  <Rat_Male_Canc> (104)
1

>  <TD50_Rat> (104)
NP

>  <TD50_Mouse> (104)
NP

>  <Rat_Female_Canc> (104)
1

>  <Canc> (104)
1

>  <MolWeight> (104)
362.76

>  <Mouse_Male_Canc> (104)
1

>  <Mouse_Male_NTP> (104)
ND

>  <ChemName> (104)
Coumaphos

>  <Rat_Male_NTP> (104)
ND

>  <Reference> (104)
NTP96

>  <Formula> (104)
C14H16ClO5PS

>  <SMILES> (104)
CC1=C(Cl)C(=O)OC2=C1C=CC(=C2)OP(=S)(OCC)OCC

>  <Rat_Female_NTP> (104)
ND

>  <CAS> (104)
56-72-4

>  <Mouse_Female_NTP> (104)
ND

>  <Synonyms> (104)
O,O-diethyl O-(3-chloro-4-methyl-2-oxo-2H-1-benzopyran-7-yl) phosphorothioate; O,O-diethyl O-(3-chloro-4-methyl-2-oxo-2H-benzopyran-7-yl)phosphorothioate; Resistox; Resitox; Umbelliferone, 3-chloro-4-methyl-, O,O-diethyl phosphorothioate; Umbethion; O,O-diethyl O-(3-chloro-4-methyl-7-coumarinyl) phosphorothioate; O,O-diethyl O-(3-chloro-4-methylumbelliferone); O-(3-chloro-4-methyl-2-oxo-2H-1-benzopyran-7-yl) O,O-diethyl phosphorothioate; 3-chloro-4-methyl-7-coumarinyl diethyl phosphorothioate; 3-chloro-4-methyl-7-hydroxycoumarin diethyl thiophosphoric acid ester; 3-chloro-4-methylumbelliferone, O-ester with O,O-diethyl phosphorothioate; 3-chloro-7-hydroxy-4-methyl-coumarin O,O-diethyl phosphorothioate; 3-chloro-7-hydroxy-4-methylcoumarin O-ester with O,O-diethyl phosphorothioate; agridip; Asantol; asunthol; Asuntol; Bay 21/199; Baymix; Bazmix; Diethyl O-(3-chloro-4-methyl-2-oxo-2H-1-benzopyran-7-yl) phosphorothioate; Diolice; Co-Ral; coumafos; Coumarin, 3-chloro-7-hydroxy-4-methyl-, O-ester with O,O-diethylpyrophosphorothioate; Meldane; Muscatox; Phosphorothioic Acid O-(3-Chloro-4-Methyl-2-Oxo-2H-1-Benzopyran-7-yl) O,O-Diethyl Ester.

$$$$
105


 40 40  0  0  0  0  0  0  0  0999 V2000
    6.9236   -5.0839   -0.3004 P   0  0  0  0  0  0  0  0  0  0  0  0
    5.9293   -5.0721    0.8351 O   0  0  0  0  0  0  0  0  0  0  0  0
    4.7521   -5.7982    0.4245 C   0  0  0  0  0  0  0  0  0  0  0  0
    3.6474   -5.6551    1.4821 C   0  0  0  0  0  0  0  0  0  0  0  0
    6.3814   -3.9082   -1.0702 O   0  0  0  0  0  0  0  0  0  0  0  0
    6.9568   -2.6951   -0.5566 C   0  0  0  0  0  0  0  0  0  0  0  0
    6.3588   -1.4880   -1.2921 C   0  0  0  0  0  0  0  0  0  0  0  0
    9.4497   -5.5332    0.1875 C   0  0  0  0  0  0  0  0  0  0  0  0
    9.3709   -6.7952   -0.2103 C   0  0  0  0  0  0  0  0  0  0  0  0
   11.7001   -7.0726    0.0496 N   0  0  0  0  0  0  0  0  0  0  0  0
   11.7686   -5.7321    0.4529 C   0  0  0  0  0  0  0  0  0  0  0  0
   10.5853   -7.5968   -0.2617 C   0  0  0  0  0  0  0  0  0  0  0  0
   10.7144   -5.0182    0.5347 N   0  0  0  0  0  0  0  0  0  0  0  0
   13.0976   -5.1187    0.7734 C   0  0  0  0  0  0  0  0  0  0  0  0
   13.0816   -3.5939    0.5500 C   0  0  0  0  0  0  0  0  0  0  0  0
   14.2416   -5.8288    0.0233 C   0  0  0  0  0  0  0  0  0  0  0  0
   10.5230   -9.0329   -0.6826 C   0  0  0  0  0  0  0  0  0  0  0  0
    8.3154   -4.6440    0.2589 O   0  0  0  0  0  0  0  0  0  0  0  0
    6.7029   -6.4767   -1.1971 S   0  0  0  0  0  0  0  0  0  0  0  0
    4.4250   -5.4321   -0.4467 H   0  0  0  0  0  0  0  0  0  0  0  0
    4.9816   -6.7653    0.3151 H   0  0  0  0  0  0  0  0  0  0  0  0
    2.8366   -6.1614    1.1885 H   0  0  0  0  0  0  0  0  0  0  0  0
    3.4145   -4.6889    1.5929 H   0  0  0  0  0  0  0  0  0  0  0  0
    3.9709   -6.0217    2.3545 H   0  0  0  0  0  0  0  0  0  0  0  0
    6.7582   -2.6207    0.4207 H   0  0  0  0  0  0  0  0  0  0  0  0
    7.9470   -2.7120   -0.6957 H   0  0  0  0  0  0  0  0  0  0  0  0
    6.7607   -0.6457   -0.9330 H   0  0  0  0  0  0  0  0  0  0  0  0
    5.3686   -1.4697   -1.1536 H   0  0  0  0  0  0  0  0  0  0  0  0
    6.5570   -1.5610   -2.2696 H   0  0  0  0  0  0  0  0  0  0  0  0
    8.4903   -7.1909   -0.4712 H   0  0  0  0  0  0  0  0  0  0  0  0
   13.2764   -5.2561    1.7477 H   0  0  0  0  0  0  0  0  0  0  0  0
   13.9798   -3.2146    0.7718 H   0  0  0  0  0  0  0  0  0  0  0  0
   12.3896   -3.1774    1.1398 H   0  0  0  0  0  0  0  0  0  0  0  0
   12.8648   -3.3990   -0.4066 H   0  0  0  0  0  0  0  0  0  0  0  0
   15.1128   -5.3974    0.2577 H   0  0  0  0  0  0  0  0  0  0  0  0
   14.0894   -5.7572   -0.9625 H   0  0  0  0  0  0  0  0  0  0  0  0
   14.2660   -6.7930    0.2873 H   0  0  0  0  0  0  0  0  0  0  0  0
   11.4416   -9.4273   -0.6608 H   0  0  0  0  0  0  0  0  0  0  0  0
   10.1570   -9.0929   -1.6114 H   0  0  0  0  0  0  0  0  0  0  0  0
    9.9287   -9.5386   -0.0572 H   0  0  0  0  0  0  0  0  0  0  0  0
  1  2  1  0  0  0  0
  2  3  1  0  0  0  0
  3  4  1  0  0  0  0
  1  5  1  0  0  0  0
  5  6  1  0  0  0  0
  6  7  1  0  0  0  0
  8  9  2  0  0  0  0
 10 11  1  0  0  0  0
  8 13  1  0  0  0  0
  9 12  1  0  0  0  0
 12 10  2  0  0  0  0
 11 13  2  0  0  0  0
 11 14  1  0  0  0  0
 14 15  1  0  0  0  0
 14 16  1  0  0  0  0
 12 17  1  0  0  0  0
  8 18  1  0  0  0  0
 18  1  1  0  0  0  0
  1 19  2  0  0  0  0
  3 20  1  0  0  0  0
  3 21  1  0  0  0  0
  4 22  1  0  0  0  0
  4 23  1  0  0  0  0
  4 24  1  0  0  0  0
  6 25  1  0  0  0  0
  6 26  1  0  0  0  0
  7 27  1  0  0  0  0
  7 28  1  0  0  0  0
  7 29  1  0  0  0  0
  9 30  1  0  0  0  0
 14 31  1  0  0  0  0
 15 32  1  0  0  0  0
 15 33  1  0  0  0  0
 15 34  1  0  0  0  0
 16 35  1  0  0  0  0
 16 36  1  0  0  0  0
 16 37  1  0  0  0  0
 17 38  1  0  0  0  0
 17 39  1  0  0  0  0
 17 40  1  0  0  0  0
M  END
>  <Substance ID> (105)
105

>  <Mouse_Female_Canc> (105)
1

>  <SAL> (105)
1

>  <Rat_Male_Canc> (105)
1

>  <TD50_Rat> (105)
NP

>  <TD50_Mouse> (105)
NP

>  <Rat_Female_Canc> (105)
1

>  <Canc> (105)
1

>  <MolWeight> (105)
304.34

>  <Mouse_Male_Canc> (105)
1

>  <Mouse_Male_NTP> (105)
ND

>  <ChemName> (105)
Diazinon

>  <Rat_Male_NTP> (105)
ND

>  <Reference> (105)
NTP137

>  <Formula> (105)
C12H21N2O3PS

>  <SMILES> (105)
S=P(OC1=NC(=NC(=C1)C)C(C)C)(OCC)OCC

>  <Rat_Female_NTP> (105)
ND

>  <CAS> (105)
333-41-5

>  <Mouse_Female_NTP> (105)
ND

>  <Synonyms> (105)
O,O-Diethyl O-(2-isopropyl-4-methyl-6-pyrimidinyl) thiophosphoric acid; O,O-diethyl O-2-isopropyl-4-methyl-6-pyrimidyl thiophosphate; O,O-Diethyl O-(2-isopropyl-6-methyl-4-pyrimidinyl), phosphorothioate; O,O-Diethyl O-(6-methyl-2-(1-methylethyl)-4-pyrimidinyl) phosophorothioate; O,O-diethyl O-(6-methyl-2-(1-methylethyl)-4-pyrimidinyl) phosphorothioate; AG-500; Antigal; Basudin; Diagran; dianon; Diaterr-fos; Diazajet; Diazide; Diazitol; Diazol; Diethyl O-(2-isopropyl-6-methyl-4-pyrimidinyl) phosphorothioate; Diethyl 2-isopropyl-4-methyl-6-pyrimidinyl phosphorothionate; Diethyl 2-isopropyl-4-methyl-6-pyrimidyl thionophosphate; diethyl 2-isopropyl-6-methyl-4-pyrimidinyl phosphorothionate; Dimpylate; Dimpylatum; Dipofene; Dizinon; Dacutox; Dassitox; Dazzel; Drawizon; Dyzol; Exodin; Fezudin; Flytrol; g-24480; Galesan; gardentox; Isopropylmethylpyrimidyl diethyl thiophosphate; kayazinon; Kayazol; Knox Out; Knox out 2FM; Neocidol; Nipsan; Nucidol; Phosphorothioic acid O,O-diethyl O-[6-methyl-2-(1-methylethyl)-4-pyrimidinyl] ester; Sarolex; Spectracide; thiophosphoric acid 2-isopropyl-4-methyl-6-pyrimidyl diethyl ester.

$$$$
106


 22 24  0  0  0  0  0  0  0  0999 V2000
    6.8581  -16.0813    0.0008 O   0  0  0  0  0  0  0  0  0  0  0  0
    6.8557  -13.2501    0.0010 O   0  0  0  0  0  0  0  0  0  0  0  0
    8.0295  -13.9970    0.0007 C   0  0  0  0  0  0  0  0  0  0  0  0
    9.3056  -13.2735   -0.0001 C   0  0  0  0  0  0  0  0  0  0  0  0
   10.4598  -13.9351   -0.0008 C   0  0  0  0  0  0  0  0  0  0  0  0
   10.4611  -15.3906   -0.0008 C   0  0  0  0  0  0  0  0  0  0  0  0
    9.3078  -16.0539   -0.0007 C   0  0  0  0  0  0  0  0  0  0  0  0
    3.2532  -13.9406   -0.0005 C   0  0  0  0  0  0  0  0  0  0  0  0
    3.2543  -15.3958   -0.0007 C   0  0  0  0  0  0  0  0  0  0  0  0
    4.4084  -16.0573   -0.0003 C   0  0  0  0  0  0  0  0  0  0  0  0
    5.6845  -15.3338    0.0006 C   0  0  0  0  0  0  0  0  0  0  0  0
    5.6835  -13.9987    0.0006 C   0  0  0  0  0  0  0  0  0  0  0  0
    4.4063  -13.2771    0.0001 C   0  0  0  0  0  0  0  0  0  0  0  0
    8.0307  -15.3322    0.0005 C   0  0  0  0  0  0  0  0  0  0  0  0
    9.3080  -12.2735   -0.0002 H   0  0  0  0  0  0  0  0  0  0  0  0
   11.3248  -13.4334   -0.0014 H   0  0  0  0  0  0  0  0  0  0  0  0
   11.3269  -15.8909   -0.0008 H   0  0  0  0  0  0  0  0  0  0  0  0
    9.3117  -17.0539   -0.0014 H   0  0  0  0  0  0  0  0  0  0  0  0
    2.3873  -13.4403   -0.0007 H   0  0  0  0  0  0  0  0  0  0  0  0
    2.3892  -15.8975   -0.0012 H   0  0  0  0  0  0  0  0  0  0  0  0
    4.4061  -17.0573   -0.0005 H   0  0  0  0  0  0  0  0  0  0  0  0
    4.4023  -12.2772    0.0000 H   0  0  0  0  0  0  0  0  0  0  0  0
  7 14  1  0  0  0  0
 14  3  2  0  0  0  0
  1 11  1  0  0  0  0
 12  2  1  0  0  0  0
  2  3  1  0  0  0  0
  3  4  1  0  0  0  0
  4  5  2  0  0  0  0
  5  6  1  0  0  0  0
  6  7  2  0  0  0  0
  8 13  2  0  0  0  0
  8  9  1  0  0  0  0
  9 10  2  0  0  0  0
 10 11  1  0  0  0  0
 11 12  2  0  0  0  0
 12 13  1  0  0  0  0
  1 14  1  0  0  0  0
  4 15  1  0  0  0  0
  5 16  1  0  0  0  0
  6 17  1  0  0  0  0
  7 18  1  0  0  0  0
  8 19  1  0  0  0  0
  9 20  1  0  0  0  0
 10 21  1  0  0  0  0
 13 22  1  0  0  0  0
M  END
>  <Substance ID> (106)
106

>  <Mouse_Female_Canc> (106)
1

>  <SAL> (106)
1

>  <Rat_Male_Canc> (106)
1

>  <TD50_Rat> (106)
NP

>  <TD50_Mouse> (106)
NP

>  <Rat_Female_Canc> (106)
1

>  <Canc> (106)
1

>  <MolWeight> (106)
184.19

>  <Mouse_Male_Canc> (106)
1

>  <Mouse_Male_NTP> (106)
ND

>  <ChemName> (106)
Dibenzo-p-dioxin

>  <Rat_Male_NTP> (106)
ND

>  <Reference> (106)
NTP122

>  <Formula> (106)
C12H8O2

>  <SMILES> (106)
O1C2=C(C=CC=C2)OC3=CC=CC=C13

>  <Rat_Female_NTP> (106)
ND

>  <CAS> (106)
262-12-4

>  <Mouse_Female_NTP> (106)
ND

>  <Synonyms> (106)
Dibenzo[1,4]dioxin; Dibenzo[b,e][1,4]dioxin; Dibenzodioxin; diphenylene dioxide; oxanthrene; phenodioxin.

$$$$
107


 18 17  0  0  0  0  0  0  0  0999 V2000
    3.2589  -19.8124    1.4280 C   0  0  0  0  0  0  0  0  0  0  0  0
    4.3611  -20.7147    1.2127 O   0  0  0  0  0  0  0  0  0  0  0  0
    4.6393  -20.8606   -0.2654 P   0  0  0  0  0  0  0  0  0  0  0  0
    6.1098  -20.5314   -0.3579 O   0  0  0  0  0  0  0  0  0  0  0  0
    6.8581  -21.5943    0.1436 C   0  0  0  0  0  0  0  0  0  0  0  0
    8.1855  -21.5228    0.1751 C   0  0  0  0  0  0  0  0  0  0  0  0
    9.1058  -22.8559    0.7789 Cl  0  0  0  0  0  0  0  0  0  0  0  0
    3.8053  -20.0863   -0.9794 O   0  0  0  0  0  0  0  0  0  0  0  0
    8.9931  -20.1021   -0.3887 Cl  0  0  0  0  0  0  0  0  0  0  0  0
    4.5388  -22.3533   -0.4823 O   0  0  0  0  0  0  0  0  0  0  0  0
    3.3733  -22.6705   -1.2644 C   0  0  0  0  0  0  0  0  0  0  0  0
    3.0857  -19.7250    2.4090 H   0  0  0  0  0  0  0  0  0  0  0  0
    2.4415  -20.1700    0.9763 H   0  0  0  0  0  0  0  0  0  0  0  0
    3.4832  -18.9148    1.0485 H   0  0  0  0  0  0  0  0  0  0  0  0
    6.3952  -22.4139    0.4812 H   0  0  0  0  0  0  0  0  0  0  0  0
    3.3209  -23.6600   -1.3991 H   0  0  0  0  0  0  0  0  0  0  0  0
    3.4341  -22.2164   -2.1533 H   0  0  0  0  0  0  0  0  0  0  0  0
    2.5540  -22.3560   -0.7851 H   0  0  0  0  0  0  0  0  0  0  0  0
  1  2  1  0  0  0  0
  2  3  1  0  0  0  0
  3  4  1  0  0  0  0
  4  5  1  0  0  0  0
  5  6  2  0  0  0  0
  6  7  1  0  0  0  0
  3  8  2  0  0  0  0
  6  9  1  0  0  0  0
  3 10  1  0  0  0  0
 10 11  1  0  0  0  0
  1 12  1  0  0  0  0
  1 13  1  0  0  0  0
  1 14  1  0  0  0  0
  5 15  1  0  0  0  0
 11 16  1  0  0  0  0
 11 17  1  0  0  0  0
 11 18  1  0  0  0  0
M  END
>  <Substance ID> (107)
107

>  <Mouse_Female_Canc> (107)
3

>  <SAL> (107)
3

>  <Rat_Male_Canc> (107)
3

>  <TD50_Rat> (107)
4.16

>  <TD50_Mouse> (107)
70.4

>  <Rat_Female_Canc> (107)
2

>  <Canc> (107)
3

>  <MolWeight> (107)
220.98

>  <Mouse_Male_Canc> (107)
3

>  <Mouse_Male_NTP> (107)
SE

>  <ChemName> (107)
Dichlorvos

>  <Rat_Male_NTP> (107)
SE

>  <Reference> (107)
NTP342

>  <Formula> (107)
C4H7Cl2O4P

>  <SMILES> (107)
O=P(OC=C(Cl)Cl)(OC)OC

>  <Rat_Female_NTP> (107)
EE

>  <CAS> (107)
62-73-7

>  <Mouse_Female_NTP> (107)
CE

>  <Synonyms> (107)
2,2-dichloroethenol dimethyl phosphate; 2,2-dichloroethenyl dimethyl phosphate; 2,2-dichloroethenyl phosphoric acid dimethyl ester; 2,2-dichlorovinyl alcohol dimethyl phosphate; 2,2-Dichlorovinyl-O,O-dimethyl phosphate; 2,2-Dichlorovinyl dimethyl phosphate; 2,2-dichlorovinyl dimethyl phosphoric acid ester; O,O-dimethyl O-2,2-dichlorovinyl phosphate; O,O-dimethyl 2,2-dichlorovinyl phosphate; O,O-dimethyl dichlorovinyl phosphate; apavap; Astrobot; Atgard; atgard c; atgard v; bay-19149; bayer 19149; benfos; bibesol; Dichloroethenyl dimethyl phosphate; Dichlorman; dichlorophos; dichlorovos; DICHLORVOS [DIMETHYL DICHLORVINYL PHOSPHATE]; dimethyl 2,2-dichloroethenyl phosphate; dimethyl 2,2-dichlorovinyl phosphate; Divipan; brevinyl; brevinyl e50; Canogard; Cekusan; chlorvinphos; Cypona; DDVP; Dedevap; Delevap; deriban; Derriban; derribante; devikol; duo-kill; duravos; Equigand; Equigard; Equigel; Equiguard; estrosel; Estrosol; fecama; fekama; fly-die; fly fighter; herkal; Herkol; insectigas d; krecalvin; MAFU; mafu strip; marvex; mopari; nefrafos; nerkol; Nogos; nogos 50; nogos 50 ec; nogos g; no-pest; No-Pest Strip; novotox; NUVA; Nuvan; nuvan 100ec; nuvan 7; OKO; OMS 14; panaplate; Phosphoric acid 2,2-dichloroethenyl dimethyl ester; phosphoric acid 2,2-dichlorovinyl dimethyl ester; phosvit; Prentox; SD 1750; szklarniak; TASK; task tabs; Tenac; tetravos; UDVF; unifos; unifos 50 ec; vapona; vaponite; vapora ii; verdican; verdipor; Verdisol; vinylofos; vinylophos; winylophos.

$$$$
108


 40 41  0  0  0  0  0  0  0  0999 V2000
   10.4014  -30.2088   -0.2561 C   0  0  0  0  0  0  0  0  0  0  0  0
   10.6677  -31.5581    0.4572 C   0  0  0  0  0  0  0  0  0  0  0  0
   12.0542  -32.0957    0.0371 C   0  0  0  0  0  0  0  0  0  0  0  0
   13.1464  -31.0798    0.4356 C   0  0  0  0  0  0  0  0  0  0  0  0
   12.8796  -29.7327   -0.2655 C   0  0  0  0  0  0  0  0  0  0  0  0
   11.4942  -29.1980    0.1526 C   0  0  0  0  0  0  0  0  0  0  0  0
    9.0800  -29.6605    0.1181 N   0  0  0  0  0  0  0  0  0  0  0  0
    5.2786  -30.2157   -0.2545 C   0  0  0  0  0  0  0  0  0  0  0  0
    6.5988  -29.6638    0.1189 N   0  0  0  0  0  0  0  0  0  0  0  0
    7.8401  -30.2953   -0.2609 C   0  0  0  0  0  0  0  0  0  0  0  0
    2.5364  -31.0941    0.4389 C   0  0  0  0  0  0  0  0  0  0  0  0
    3.6311  -32.1071    0.0396 C   0  0  0  0  0  0  0  0  0  0  0  0
    5.0164  -31.5658    0.4589 C   0  0  0  0  0  0  0  0  0  0  0  0
    4.1834  -29.2079    0.1550 C   0  0  0  0  0  0  0  0  0  0  0  0
    2.7991  -29.7463   -0.2623 C   0  0  0  0  0  0  0  0  0  0  0  0
    7.8416  -31.6100   -1.1156 S   0  0  0  0  0  0  0  0  0  0  0  0
   10.4153  -30.3650   -1.2437 H   0  0  0  0  0  0  0  0  0  0  0  0
   10.6492  -31.4212    1.4476 H   0  0  0  0  0  0  0  0  0  0  0  0
    9.9618  -32.2174    0.1982 H   0  0  0  0  0  0  0  0  0  0  0  0
   12.2264  -32.9669    0.4969 H   0  0  0  0  0  0  0  0  0  0  0  0
   12.0720  -32.2319   -0.9534 H   0  0  0  0  0  0  0  0  0  0  0  0
   13.1322  -30.9477    1.4268 H   0  0  0  0  0  0  0  0  0  0  0  0
   14.0418  -31.4279    0.1581 H   0  0  0  0  0  0  0  0  0  0  0  0
   13.5843  -29.0744   -0.0007 H   0  0  0  0  0  0  0  0  0  0  0  0
   12.9006  -29.8635   -1.2567 H   0  0  0  0  0  0  0  0  0  0  0  0
   11.3245  -28.3235   -0.3016 H   0  0  0  0  0  0  0  0  0  0  0  0
   11.4732  -29.0688    1.1440 H   0  0  0  0  0  0  0  0  0  0  0  0
    9.0439  -28.8173    0.6545 H   0  0  0  0  0  0  0  0  0  0  0  0
    5.2645  -30.3718   -1.2421 H   0  0  0  0  0  0  0  0  0  0  0  0
    6.6329  -28.8205    0.6552 H   0  0  0  0  0  0  0  0  0  0  0  0
    1.6418  -31.4446    0.1619 H   0  0  0  0  0  0  0  0  0  0  0  0
    2.5509  -30.9620    1.4301 H   0  0  0  0  0  0  0  0  0  0  0  0
    3.4615  -32.9787    0.4995 H   0  0  0  0  0  0  0  0  0  0  0  0
    3.6131  -32.2432   -0.9509 H   0  0  0  0  0  0  0  0  0  0  0  0
    5.0352  -31.4288    1.4493 H   0  0  0  0  0  0  0  0  0  0  0  0
    5.7239  -32.2231    0.1994 H   0  0  0  0  0  0  0  0  0  0  0  0
    4.2046  -29.0787    1.1464 H   0  0  0  0  0  0  0  0  0  0  0  0
    4.3504  -28.3329   -0.2993 H   0  0  0  0  0  0  0  0  0  0  0  0
    2.7778  -29.8771   -1.2535 H   0  0  0  0  0  0  0  0  0  0  0  0
    2.0929  -29.0899    0.0030 H   0  0  0  0  0  0  0  0  0  0  0  0
  1  2  1  0  0  0  0
  1  6  1  0  0  0  0
  2  3  1  0  0  0  0
  3  4  1  0  0  0  0
  4  5  1  0  0  0  0
  5  6  1  0  0  0  0
  8  9  1  0  0  0  0
  9 10  1  0  0  0  0
 10  7  1  0  0  0  0
 11 12  1  0  0  0  0
 11 15  1  0  0  0  0
 12 13  1  0  0  0  0
 13  8  1  0  0  0  0
  8 14  1  0  0  0  0
 14 15  1  0  0  0  0
  7  1  1  0  0  0  0
 10 16  2  0  0  0  0
  1 17  1  0  0  0  0
  2 18  1  0  0  0  0
  2 19  1  0  0  0  0
  3 20  1  0  0  0  0
  3 21  1  0  0  0  0
  4 22  1  0  0  0  0
  4 23  1  0  0  0  0
  5 24  1  0  0  0  0
  5 25  1  0  0  0  0
  6 26  1  0  0  0  0
  6 27  1  0  0  0  0
  7 28  1  0  0  0  0
  8 29  1  0  0  0  0
  9 30  1  0  0  0  0
 11 31  1  0  0  0  0
 11 32  1  0  0  0  0
 12 33  1  0  0  0  0
 12 34  1  0  0  0  0
 13 35  1  0  0  0  0
 13 36  1  0  0  0  0
 14 37  1  0  0  0  0
 14 38  1  0  0  0  0
 15 39  1  0  0  0  0
 15 40  1  0  0  0  0
M  END
>  <Substance ID> (108)
108

>  <Mouse_Female_Canc> (108)
1

>  <SAL> (108)
1

>  <Rat_Male_Canc> (108)
1

>  <TD50_Rat> (108)
NP

>  <TD50_Mouse> (108)
NP

>  <Rat_Female_Canc> (108)
1

>  <Canc> (108)
1

>  <MolWeight> (108)
240.41

>  <Mouse_Male_Canc> (108)
1

>  <Mouse_Male_NTP> (108)
ND

>  <ChemName> (108)
N,N'-Dicyclohexylthiourea 

>  <Rat_Male_NTP> (108)
ND

>  <Reference> (108)
NTP56

>  <Formula> (108)
C13H24N2S

>  <SMILES> (108)
S=C(NC1CCCCC1)NC1CCCCC1

>  <Rat_Female_NTP> (108)
ND

>  <CAS> (108)
1212-29-9

>  <Mouse_Female_NTP> (108)
ND

>  <Synonyms> (108)
1,3-Dicyclohexyl-2-thiourea; 1,3-Dicyclohexylthiourea; dicyclohexyl thiourea.

$$$$
109


 24 23  0  0  0  0  0  0  0  0999 V2000
   12.0806  -41.4992   -0.1463 C   0  0  0  0  0  0  0  0  0  0  0  0
   10.8247  -40.8177    0.1929 N   0  0  0  0  0  0  0  0  0  0  0  0
    9.5679  -41.4520   -0.0444 C   0  0  0  0  0  0  0  0  0  0  0  0
    8.3018  -40.7369    0.3121 C   0  0  0  0  0  0  0  0  0  0  0  0
    6.8467  -41.6758   -0.2426 S   0  0  0  0  0  0  0  0  0  0  0  0
    5.2606  -40.7643    0.2686 P   0  0  0  0  0  0  0  0  0  0  0  0
    4.4000  -40.5769   -0.9633 O   0  0  0  0  0  0  0  0  0  0  0  0
    5.7894  -39.4368    0.7761 O   0  0  0  0  0  0  0  0  0  0  0  0
    5.5569  -38.3909   -0.1911 C   0  0  0  0  0  0  0  0  0  0  0  0
    9.5309  -42.5831   -0.5410 O   0  0  0  0  0  0  0  0  0  0  0  0
    4.5815  -41.7065    1.4674 S   0  0  0  0  0  0  0  0  0  0  0  0
    3.2281  -41.4095   -0.8856 C   0  0  0  0  0  0  0  0  0  0  0  0
   12.8539  -40.9096    0.0870 H   0  0  0  0  0  0  0  0  0  0  0  0
   12.0980  -41.6988   -1.1260 H   0  0  0  0  0  0  0  0  0  0  0  0
   12.1463  -42.3538    0.3688 H   0  0  0  0  0  0  0  0  0  0  0  0
   10.8500  -39.9017    0.5934 H   0  0  0  0  0  0  0  0  0  0  0  0
    8.2588  -40.6230    1.3046 H   0  0  0  0  0  0  0  0  0  0  0  0
    8.2986  -39.8387   -0.1274 H   0  0  0  0  0  0  0  0  0  0  0  0
    5.9120  -37.5252    0.1615 H   0  0  0  0  0  0  0  0  0  0  0  0
    4.5749  -38.3041   -0.3593 H   0  0  0  0  0  0  0  0  0  0  0  0
    6.0224  -38.6179   -1.0466 H   0  0  0  0  0  0  0  0  0  0  0  0
    2.6692  -41.2764   -1.7040 H   0  0  0  0  0  0  0  0  0  0  0  0
    2.6963  -41.1624   -0.0755 H   0  0  0  0  0  0  0  0  0  0  0  0
    3.5037  -42.3688   -0.8231 H   0  0  0  0  0  0  0  0  0  0  0  0
  1  2  1  0  0  0  0
  2  3  1  0  0  0  0
  3  4  1  0  0  0  0
  4  5  1  0  0  0  0
  6  5  1  0  0  0  0
  6  7  1  0  0  0  0
  6  8  1  0  0  0  0
  8  9  1  0  0  0  0
  3 10  2  0  0  0  0
  6 11  2  0  0  0  0
  7 12  1  0  0  0  0
  1 13  1  0  0  0  0
  1 14  1  0  0  0  0
  1 15  1  0  0  0  0
  2 16  1  0  0  0  0
  4 17  1  0  0  0  0
  4 18  1  0  0  0  0
  9 19  1  0  0  0  0
  9 20  1  0  0  0  0
  9 21  1  0  0  0  0
 12 22  1  0  0  0  0
 12 23  1  0  0  0  0
 12 24  1  0  0  0  0
M  END
>  <Substance ID> (109)
109

>  <Mouse_Female_Canc> (109)
1

>  <SAL> (109)
3

>  <Rat_Male_Canc> (109)
1

>  <TD50_Rat> (109)
NP

>  <TD50_Mouse> (109)
NP

>  <Rat_Female_Canc> (109)
1

>  <Canc> (109)
1

>  <MolWeight> (109)
229.25

>  <Mouse_Male_Canc> (109)
1

>  <Mouse_Male_NTP> (109)
ND

>  <ChemName> (109)
Dimethoate

>  <Rat_Male_NTP> (109)
ND

>  <Reference> (109)
NTP4

>  <Formula> (109)
C5H12NO3PS2

>  <SMILES> (109)
S=P(SCC(=O)NC)(OC)OC

>  <Rat_Female_NTP> (109)
ND

>  <CAS> (109)
60-51-5

>  <Mouse_Female_NTP> (109)
ND

>  <Synonyms> (109)
O,O-Dimethyl methylcarbamoylmethyl phosphorodithioate; O,O-dimethyl S-(2-(methylamino)-2-oxoethyl) phosphorodithioate; O,O-dimethyl S-methylcarbamoylmethyl phosphorodithioate; O,O-Dimethyl S-(N-Methylcarbamoylmethyl) Phosphorodithioate; American Cyanamid 12880; Dimethyl phosphorodithioate, S-ester with 2-mercapto-N-methylacetamide; Dimethyl S-((methylcarbamoyl)methyl) phosphorodithioate; Dimethyl S-(N-(methylcarbamoyl)methyl) phosphorodithioate; Cygon; Defend; Fosfamid; Fostion M M; Perfekthion; phosphorodithioic acid O,O-dimethyl ester, ester with 2-mercapto-N-methylacetamide; Phosphorodithioic Acid O,O-Dimethyl S-(2-(Methylamino)-2-Oxoethyl) Ester; Rebelate; Rogor; Roxion.

$$$$
110


 22 22  0  0  0  0  0  0  0  0999 V2000
    3.3353  -48.7853   -0.0020 C   0  0  0  0  0  0  0  0  0  0  0  0
    3.3458  -50.1179   -0.0031 C   0  0  0  0  0  0  0  0  0  0  0  0
    5.7641  -50.1562   -0.0011 C   0  0  0  0  0  0  0  0  0  0  0  0
    5.7584  -48.6926    0.0009 C   0  0  0  0  0  0  0  0  0  0  0  0
    4.6198  -50.8380   -0.0016 C   0  0  0  0  0  0  0  0  0  0  0  0
    4.5996  -48.0390    0.0008 C   0  0  0  0  0  0  0  0  0  0  0  0
    6.9622  -47.9797    0.0029 O   0  0  0  0  0  0  0  0  0  0  0  0
    8.0768  -48.8820    0.0003 C   0  0  0  0  0  0  0  0  0  0  0  0
    4.6297  -52.2388   -0.0007 O   0  0  0  0  0  0  0  0  0  0  0  0
    5.9771  -52.7392   -0.0004 C   0  0  0  0  0  0  0  0  0  0  0  0
    4.5887  -46.6448    0.0024 N   0  0  0  0  0  0  0  0  0  0  0  0
    2.4649  -48.2929   -0.0031 H   0  0  0  0  0  0  0  0  0  0  0  0
    2.4841  -50.6252   -0.0051 H   0  0  0  0  0  0  0  0  0  0  0  0
    6.6345  -50.6485   -0.0022 H   0  0  0  0  0  0  0  0  0  0  0  0
    8.9294  -48.3594    0.0017 H   0  0  0  0  0  0  0  0  0  0  0  0
    8.0397  -49.4560   -0.8177 H   0  0  0  0  0  0  0  0  0  0  0  0
    8.0398  -49.4607    0.8151 H   0  0  0  0  0  0  0  0  0  0  0  0
    5.9618  -53.7390    0.0002 H   0  0  0  0  0  0  0  0  0  0  0  0
    6.4542  -52.4131    0.8157 H   0  0  0  0  0  0  0  0  0  0  0  0
    6.4541  -52.4141   -0.8171 H   0  0  0  0  0  0  0  0  0  0  0  0
    5.4508  -46.1381    0.0043 H   0  0  0  0  0  0  0  0  0  0  0  0
    3.7189  -46.1516    0.0016 H   0  0  0  0  0  0  0  0  0  0  0  0
  1  2  2  0  0  0  0
  3  4  1  0  0  0  0
  1  6  1  0  0  0  0
  2  5  1  0  0  0  0
  5  3  2  0  0  0  0
  4  6  2  0  0  0  0
  4  7  1  0  0  0  0
  7  8  1  0  0  0  0
  5  9  1  0  0  0  0
  9 10  1  0  0  0  0
  6 11  1  0  0  0  0
  1 12  1  0  0  0  0
  2 13  1  0  0  0  0
  3 14  1  0  0  0  0
  8 15  1  0  0  0  0
  8 16  1  0  0  0  0
  8 17  1  0  0  0  0
 10 18  1  0  0  0  0
 10 19  1  0  0  0  0
 10 20  1  0  0  0  0
 11 21  1  0  0  0  0
 11 22  1  0  0  0  0
M  END
>  <Substance ID> (110)
110

>  <Mouse_Female_Canc> (110)
1

>  <SAL> (110)
3

>  <Rat_Male_Canc> (110)
1

>  <TD50_Rat> (110)
NP

>  <TD50_Mouse> (110)
NP

>  <Rat_Female_Canc> (110)
1

>  <Canc> (110)
1

>  <MolWeight> (110)
153.18

>  <Mouse_Male_Canc> (110)
1

>  <Mouse_Male_NTP> (110)
ND

>  <ChemName> (110)
2,4-Dimethoxyaniline Hydrochloride

>  <Rat_Male_NTP> (110)
ND

>  <Reference> (110)
NTP171

>  <Formula> (110)
C8H11NO2 

>  <SMILES> (110)
COc1ccc(N)c(OC)c1

>  <Rat_Female_NTP> (110)
ND

>  <CAS> (110)
54150-69-5

>  <Mouse_Female_NTP> (110)
ND

>  <Synonyms> (110)
2-methoxy-p-anisidine hydrochloride; 4-methoxy-o-anisidine hydrochloride.

$$$$
111


 24 24  0  0  0  0  0  0  0  0999 V2000
    7.3951  -60.8744   -0.0046 C   0  0  0  0  0  0  0  0  0  0  0  0
    7.2822  -62.2029   -0.0058 C   0  0  0  0  0  0  0  0  0  0  0  0
    9.6870  -62.4616   -0.0010 C   0  0  0  0  0  0  0  0  0  0  0  0
    9.8041  -61.0301   -0.0019 C   0  0  0  0  0  0  0  0  0  0  0  0
    8.4907  -63.0277   -0.0017 C   0  0  0  0  0  0  0  0  0  0  0  0
    8.7298  -60.2397   -0.0021 C   0  0  0  0  0  0  0  0  0  0  0  0
    8.7904  -58.7120    0.0011 C   0  0  0  0  0  0  0  0  0  0  0  0
    8.4057  -64.4633    0.0014 C   0  0  0  0  0  0  0  0  0  0  0  0
    9.9775  -57.8404    0.0034 O   0  0  0  0  0  0  0  0  0  0  0  0
    7.6997  -58.1314    0.0030 O   0  0  0  0  0  0  0  0  0  0  0  0
    7.1702  -65.0822    0.0011 O   0  0  0  0  0  0  0  0  0  0  0  0
    9.4445  -65.1332    0.0037 O   0  0  0  0  0  0  0  0  0  0  0  0
   11.3195  -58.3869    0.0016 C   0  0  0  0  0  0  0  0  0  0  0  0
    7.3521  -66.4971    0.0039 C   0  0  0  0  0  0  0  0  0  0  0  0
    6.5731  -60.3049   -0.0054 H   0  0  0  0  0  0  0  0  0  0  0  0
    6.3789  -62.6321   -0.0094 H   0  0  0  0  0  0  0  0  0  0  0  0
   10.5094  -63.0305    0.0003 H   0  0  0  0  0  0  0  0  0  0  0  0
   10.7142  -60.6155   -0.0024 H   0  0  0  0  0  0  0  0  0  0  0  0
   11.9842  -57.6399    0.0036 H   0  0  0  0  0  0  0  0  0  0  0  0
   11.4507  -58.9470   -0.8165 H   0  0  0  0  0  0  0  0  0  0  0  0
   11.4510  -58.9517    0.8163 H   0  0  0  0  0  0  0  0  0  0  0  0
    6.4598  -66.9484    0.0037 H   0  0  0  0  0  0  0  0  0  0  0  0
    7.8612  -66.7666    0.8214 H   0  0  0  0  0  0  0  0  0  0  0  0
    7.8631  -66.7695   -0.8114 H   0  0  0  0  0  0  0  0  0  0  0  0
  1  2  2  0  0  0  0
  3  4  1  0  0  0  0
  1  6  1  0  0  0  0
  2  5  1  0  0  0  0
  5  3  2  0  0  0  0
  4  6  2  0  0  0  0
  6  7  1  0  0  0  0
  5  8  1  0  0  0  0
  7  9  1  0  0  0  0
  7 10  2  0  0  0  0
  8 11  1  0  0  0  0
  8 12  2  0  0  0  0
  9 13  1  0  0  0  0
 11 14  1  0  0  0  0
  1 15  1  0  0  0  0
  2 16  1  0  0  0  0
  3 17  1  0  0  0  0
  4 18  1  0  0  0  0
 13 19  1  0  0  0  0
 13 20  1  0  0  0  0
 13 21  1  0  0  0  0
 14 22  1  0  0  0  0
 14 23  1  0  0  0  0
 14 24  1  0  0  0  0
M  END
>  <Substance ID> (111)
111

>  <Mouse_Female_Canc> (111)
1

>  <SAL> (111)
1

>  <Rat_Male_Canc> (111)
1

>  <TD50_Rat> (111)
NP

>  <TD50_Mouse> (111)
NP

>  <Rat_Female_Canc> (111)
1

>  <Canc> (111)
2

>  <MolWeight> (111)
194.19

>  <Mouse_Male_Canc> (111)
2

>  <Mouse_Male_NTP> (111)
ND

>  <ChemName> (111)
Dimethyl Terephthalate

>  <Rat_Male_NTP> (111)
ND

>  <Reference> (111)
NTP121

>  <Formula> (111)
C10H10O4

>  <SMILES> (111)
O=C(C1=CC=C(C=C1)C(=O)OC)OC

>  <Rat_Female_NTP> (111)
ND

>  <CAS> (111)
120-61-6

>  <Mouse_Female_NTP> (111)
ND

>  <Synonyms> (111)
Dimethyl 1,4-benzenedicarboxylate; Dimethyl p-phthalate; dimethyl ester of 1,4-benzenedicarboxylic acid; DMT; methyl 4-carbomethoxybenzoate; Methyl Terephthalate; terephthalic acid methyl ester.

$$$$
112


 19 19  0  0  0  0  0  0  0  0999 V2000
    3.7029  -71.7513   -0.0063 C   0  0  0  0  0  0  0  0  0  0  0  0
    3.7290  -73.0796   -0.0081 C   0  0  0  0  0  0  0  0  0  0  0  0
    6.1402  -73.0902    0.0027 C   0  0  0  0  0  0  0  0  0  0  0  0
    6.1327  -71.6311    0.0022 C   0  0  0  0  0  0  0  0  0  0  0  0
    5.0043  -73.7747   -0.0017 C   0  0  0  0  0  0  0  0  0  0  0  0
    4.9502  -70.9791   -0.0009 C   0  0  0  0  0  0  0  0  0  0  0  0
    4.8341  -69.4729   -0.0006 C   0  0  0  0  0  0  0  0  0  0  0  0
    7.4100  -70.9938    0.0045 N   0  3  0  0  0  0  0  0  0  0  0  0
    8.4770  -71.7603    0.0031 O   0  5  0  0  0  0  0  0  0  0  0  0
    7.5489  -69.8287    0.0059 O   0  0  0  0  0  0  0  0  0  0  0  0
    5.0334  -75.1601   -0.0008 N   0  3  0  0  0  0  0  0  0  0  0  0
    3.9016  -75.8424   -0.0106 O   0  5  0  0  0  0  0  0  0  0  0  0
    6.0642  -75.7194    0.0073 O   0  0  0  0  0  0  0  0  0  0  0  0
    2.8246  -71.2732   -0.0086 H   0  0  0  0  0  0  0  0  0  0  0  0
    2.8742  -73.5985   -0.0138 H   0  0  0  0  0  0  0  0  0  0  0  0
    7.0121  -73.5799    0.0065 H   0  0  0  0  0  0  0  0  0  0  0  0
    5.7482  -69.0677    0.0033 H   0  0  0  0  0  0  0  0  0  0  0  0
    4.3352  -69.1768    0.8140 H   0  0  0  0  0  0  0  0  0  0  0  0
    4.3418  -69.1760   -0.8188 H   0  0  0  0  0  0  0  0  0  0  0  0
  1  2  2  0  0  0  0
  3  4  1  0  0  0  0
  1  6  1  0  0  0  0
  2  5  1  0  0  0  0
  5  3  2  0  0  0  0
  4  6  2  0  0  0  0
  6  7  1  0  0  0  0
  8  9  1  0  0  0  0
  8 10  2  0  0  0  0
  4  8  1  0  0  0  0
 11 12  1  0  0  0  0
 11 13  2  0  0  0  0
  5 11  1  0  0  0  0
  1 14  1  0  0  0  0
  2 15  1  0  0  0  0
  3 16  1  0  0  0  0
  7 17  1  0  0  0  0
  7 18  1  0  0  0  0
  7 19  1  0  0  0  0
M  END
>  <Substance ID> (112)
112

>  <Mouse_Female_Canc> (112)
1

>  <SAL> (112)
3

>  <Rat_Male_Canc> (112)
3

>  <TD50_Rat> (112)
6.21

>  <TD50_Mouse> (112)
NP

>  <Rat_Female_Canc> (112)
3

>  <Canc> (112)
3

>  <MolWeight> (112)
182.14

>  <Mouse_Male_Canc> (112)
1

>  <Mouse_Male_NTP> (112)
ND

>  <ChemName> (112)
2,4-Dinitrotoluene 

>  <Rat_Male_NTP> (112)
ND

>  <Reference> (112)
NTP54

>  <Formula> (112)
C7H6N2O4

>  <SMILES> (112)
CC1=C(C=C(C=C1)[N+](=O)[O-])[N+](=O)[O-]

>  <Rat_Female_NTP> (112)
ND

>  <CAS> (112)
121-14-2

>  <Mouse_Female_NTP> (112)
ND

>  <Synonyms> (112)
1-Methyl-2,4-Dinitrobenzene; 2,4-dinitrotoluol; 2,4-DNT; Dinitrotoluene, 2,4-; Dinitrotoluol; DNT.

$$$$
113


 50 50  0  0  0  0  0  0  0  0999 V2000
   15.2342  -82.5268    0.5687 O   0  0  0  0  0  0  0  0  0  0  0  0
   16.3910  -82.4237    1.4295 C   0  0  0  0  0  0  0  0  0  0  0  0
   17.1768  -83.7474    1.4049 C   0  0  0  0  0  0  0  0  0  0  0  0
   14.4971  -80.9060   -1.1068 O   0  0  0  0  0  0  0  0  0  0  0  0
   15.4230  -79.8847   -1.5614 C   0  0  0  0  0  0  0  0  0  0  0  0
   16.8720  -80.4327   -1.6311 C   0  0  0  0  0  0  0  0  0  0  0  0
    9.9611  -80.2359    1.1578 O   0  0  0  0  0  0  0  0  0  0  0  0
   10.0702  -79.0354    0.3764 C   0  0  0  0  0  0  0  0  0  0  0  0
   11.4521  -78.9919   -0.2995 C   0  0  0  0  0  0  0  0  0  0  0  0
   10.0902  -81.3947    0.3095 C   0  0  1  0  0  0  0  0  0  0  0  0
    4.7705  -83.9737    0.8426 C   0  0  0  0  0  0  0  0  0  0  0  0
    5.7196  -82.7672    0.9593 C   0  0  0  0  0  0  0  0  0  0  0  0
    6.2705  -82.4408   -0.3420 O   0  0  0  0  0  0  0  0  0  0  0  0
    3.9296  -80.3385   -1.0254 C   0  0  0  0  0  0  0  0  0  0  0  0
    5.1993  -79.4781   -0.8178 C   0  0  0  0  0  0  0  0  0  0  0  0
    6.3682  -80.1735   -1.3084 O   0  0  0  0  0  0  0  0  0  0  0  0
    7.0204  -81.1140   -0.2809 P   0  0  0  0  0  0  0  0  0  0  0  0
    6.9127  -80.5337    1.2817 S   0  0  0  0  0  0  0  0  0  0  0  0
    8.7863  -81.3656   -0.9839 S   0  0  0  0  0  0  0  0  0  0  0  0
   11.5044  -81.3541   -0.3568 C   0  0  1  0  0  0  0  0  0  0  0  0
   11.6032  -80.1410   -1.1383 O   0  0  0  0  0  0  0  0  0  0  0  0
   12.7788  -81.3736    0.9761 S   0  0  0  0  0  0  0  0  0  0  0  0
   14.6017  -81.1482    0.3986 P   0  0  0  0  0  0  0  0  0  0  0  0
   15.4348  -79.9913    1.2305 S   0  0  0  0  0  0  0  0  0  0  0  0
   16.9795  -81.6821    1.1075 H   0  0  0  0  0  0  0  0  0  0  0  0
   16.0932  -82.2315    2.3646 H   0  0  0  0  0  0  0  0  0  0  0  0
   17.9760  -83.6724    2.0012 H   0  0  0  0  0  0  0  0  0  0  0  0
   17.4757  -83.9409    0.4704 H   0  0  0  0  0  0  0  0  0  0  0  0
   16.5897  -84.4901    1.7271 H   0  0  0  0  0  0  0  0  0  0  0  0
   15.1470  -79.5761   -2.4717 H   0  0  0  0  0  0  0  0  0  0  0  0
   15.3962  -79.1136   -0.9252 H   0  0  0  0  0  0  0  0  0  0  0  0
   17.4874  -79.7103   -1.9462 H   0  0  0  0  0  0  0  0  0  0  0  0
   16.9076  -81.2020   -2.2690 H   0  0  0  0  0  0  0  0  0  0  0  0
   17.1568  -80.7397   -0.7229 H   0  0  0  0  0  0  0  0  0  0  0  0
    9.3558  -79.0264   -0.3234 H   0  0  0  0  0  0  0  0  0  0  0  0
    9.9644  -78.2388    0.9716 H   0  0  0  0  0  0  0  0  0  0  0  0
   11.5275  -78.1622   -0.8526 H   0  0  0  0  0  0  0  0  0  0  0  0
   12.1664  -78.9927    0.4003 H   0  0  0  0  0  0  0  0  0  0  0  0
    9.9862  -82.2320    0.8462 H   0  0  0  0  0  0  0  0  0  0  0  0
    4.3955  -84.1918    1.7435 H   0  0  0  0  0  0  0  0  0  0  0  0
    5.2752  -84.7628    0.4923 H   0  0  0  0  0  0  0  0  0  0  0  0
    4.0235  -83.7514    0.2160 H   0  0  0  0  0  0  0  0  0  0  0  0
    5.2127  -81.9801    1.3109 H   0  0  0  0  0  0  0  0  0  0  0  0
    6.4648  -82.9918    1.5872 H   0  0  0  0  0  0  0  0  0  0  0  0
    3.1314  -79.8441   -0.6813 H   0  0  0  0  0  0  0  0  0  0  0  0
    4.0262  -81.2012   -0.5289 H   0  0  0  0  0  0  0  0  0  0  0  0
    3.8098  -80.5269   -2.0002 H   0  0  0  0  0  0  0  0  0  0  0  0
    5.0971  -78.6159   -1.3138 H   0  0  0  0  0  0  0  0  0  0  0  0
    5.3136  -79.2904    0.1578 H   0  0  0  0  0  0  0  0  0  0  0  0
   11.6469  -82.1427   -0.9550 H   0  0  0  0  0  0  0  0  0  0  0  0
  1  2  1  0  0  0  0
  2  3  1  0  0  0  0
  4  5  1  0  0  0  0
  5  6  1  0  0  0  0
  7  8  1  0  0  0  0
  8  9  1  0  0  0  0
  7 10  1  0  0  0  0
 11 12  1  0  0  0  0
 12 13  1  0  0  0  0
 14 15  1  0  0  0  0
 15 16  1  0  0  0  0
 17 18  2  0  0  0  0
 17 16  1  0  0  0  0
 17 13  1  0  0  0  0
 17 19  1  0  0  0  0
 19 10  1  6  0  0  0
 10 20  1  0  0  0  0
 20 21  1  0  0  0  0
 21  9  1  0  0  0  0
 20 22  1  1  0  0  0
 22 23  1  0  0  0  0
 23  4  1  0  0  0  0
 23  1  1  0  0  0  0
 23 24  2  0  0  0  0
  2 25  1  0  0  0  0
  2 26  1  0  0  0  0
  3 27  1  0  0  0  0
  3 28  1  0  0  0  0
  3 29  1  0  0  0  0
  5 30  1  0  0  0  0
  5 31  1  0  0  0  0
  6 32  1  0  0  0  0
  6 33  1  0  0  0  0
  6 34  1  0  0  0  0
  8 35  1  0  0  0  0
  8 36  1  0  0  0  0
  9 37  1  0  0  0  0
  9 38  1  0  0  0  0
 10 39  1  0  0  0  0
 11 40  1  0  0  0  0
 11 41  1  0  0  0  0
 11 42  1  0  0  0  0
 12 43  1  0  0  0  0
 12 44  1  0  0  0  0
 14 45  1  0  0  0  0
 14 46  1  0  0  0  0
 14 47  1  0  0  0  0
 15 48  1  0  0  0  0
 15 49  1  0  0  0  0
 20 50  1  0  0  0  0
M  END
>  <Substance ID> (113)
113

>  <Mouse_Female_Canc> (113)
1

>  <SAL> (113)
3

>  <Rat_Male_Canc> (113)
1

>  <TD50_Rat> (113)
NP

>  <TD50_Mouse> (113)
NP

>  <Rat_Female_Canc> (113)
1

>  <Canc> (113)
1

>  <MolWeight> (113)
456.52

>  <Mouse_Male_Canc> (113)
1

>  <Mouse_Male_NTP> (113)
ND

>  <ChemName> (113)
Dioxathion

>  <Rat_Male_NTP> (113)
ND

>  <Reference> (113)
NTP125

>  <Formula> (113)
C12H26O6P2S4

>  <SMILES> (113)
S=P(S[C@@H]1OCCOC1SP(=S)(OCC)OCC)(OCC)OCC

>  <Rat_Female_NTP> (113)
ND

>  <CAS> (113)
78-34-2

>  <Mouse_Female_NTP> (113)
ND

>  <Synonyms> (113)
1,4-Dioxane-2,3-dithiol, S,S-diester with O,O-diethyl phosphorodithioate; 1,4-dioxan-2,3-diyl O,O,O',O'-tetraethyl di(phosphoromithioate); Ruphos; S,S'-1,4-dioxane-2,3-diyl O,O,O',O'-tetraethyl phosphorodithioate; 1,4-Dioxane-2,3-diyl O,O,O',O'-tetraethyl phosphorodithioate; 1,4-Dioxan-2,3-diyl-bis(O,O-diethyl phosphorothiolothionate); 1,4-Dioxanedithiol S,S-bis(O,O-diethyl phosphorodithioate); 2,3-p-dioxanedithiol S,S-bis(O,O-diethyl phosphorodithioate); 2,3-p-dioxane S,S-bis(O,O-diethylphosphorodithioate); p-dioxane-2,3-dithiol, S,S-diester with O,O-diethyl phoshorodithioate; p-dioxane-2,3-diyl ethyl phosphorodithioate; AC 528; dioxation; dioxothion; Cooper Del-Tox Delnav; Delanov; Delnatex; Delnav; Delnav(R); deltic; Dextrone X; hercules 528; Hercules AC528; kavadel; Navadel; Phosphorodithioic acid S,S'-1,4-dioxane-2,3-diyl O,O,O',O'-tetraethyl ester; phosphorodithioic acid S,S'-p-dioxane-2,3-diyl O,O,O',O'-tetraethyl ester.

$$$$
114


 27 31  0  0  0  0  0  0  0  0999 V2000
    5.0533  -88.9135   -0.2186 C   0  0  1  0  0  0  0  0  0  0  0  0
    5.0966  -90.3603   -0.5630 C   0  0  2  0  0  0  0  0  0  0  0  0
    6.5542  -90.6145   -1.0324 C   0  0  2  0  0  0  0  0  0  0  0  0
    6.4720  -88.3799   -0.5293 C   0  0  1  0  0  0  0  0  0  0  0  0
    7.3946  -88.9929    0.5659 C   0  0  1  0  0  0  0  0  0  0  0  0
    7.4474  -90.4586    0.2450 C   0  0  1  0  0  0  0  0  0  0  0  0
    8.9883  -90.8056    0.2899 C   0  0  2  0  0  0  0  0  0  0  0  0
    9.8062  -90.0665   -0.7222 C   0  0  0  0  0  0  0  0  0  0  0  0
    9.7529  -88.7823   -0.4509 C   0  0  0  0  0  0  0  0  0  0  0  0
    8.9000  -88.5841    0.7635 C   0  0  2  0  0  0  0  0  0  0  0  0
    4.4754  -89.3907   -1.4689 O   0  0  0  0  0  0  0  0  0  0  0  0
    9.0808  -86.9924    1.4989 Cl  0  0  0  0  0  0  0  0  0  0  0  0
   10.5604  -87.5327   -1.3298 Cl  0  0  0  0  0  0  0  0  0  0  0  0
   10.6989  -90.7873   -2.0148 Cl  0  0  0  0  0  0  0  0  0  0  0  0
    9.3052  -92.5405    0.3175 Cl  0  0  0  0  0  0  0  0  0  0  0  0
    9.3376  -89.8940    1.5326 C   0  0  2  0  0  0  0  0  0  0  0  0
    8.4070  -90.2424    2.9926 Cl  0  0  0  0  0  0  0  0  0  0  0  0
   11.0659  -89.9003    1.8880 Cl  0  0  0  0  0  0  0  0  0  0  0  0
    6.8502  -89.2642   -1.7651 C   0  0  0  0  0  0  0  0  0  0  0  0
    4.7293  -88.3507    0.5418 H   0  0  0  0  0  0  0  0  0  0  0  0
    4.8100  -91.2278   -0.1564 H   0  0  0  0  0  0  0  0  0  0  0  0
    6.6911  -91.4727   -1.5273 H   0  0  0  0  0  0  0  0  0  0  0  0
    6.5353  -87.3858   -0.6169 H   0  0  0  0  0  0  0  0  0  0  0  0
    6.9704  -88.6509    1.4044 H   0  0  0  0  0  0  0  0  0  0  0  0
    7.0570  -91.1523    0.8502 H   0  0  0  0  0  0  0  0  0  0  0  0
    6.2586  -89.1082   -2.5560 H   0  0  0  0  0  0  0  0  0  0  0  0
    7.8069  -89.1674   -2.0396 H   0  0  0  0  0  0  0  0  0  0  0  0
  1  2  1  0  0  0  0
  1  4  1  0  0  0  0
  2  3  1  0  0  0  0
  3  6  1  0  0  0  0
  5  4  1  0  0  0  0
  5  6  1  0  0  0  0
  5 10  1  0  0  0  0
  6  7  1  0  0  0  0
  7  8  1  0  0  0  0
  8  9  2  0  0  0  0
  9 10  1  0  0  0  0
  1 11  1  0  0  0  0
  2 11  1  0  0  0  0
 10 12  1  0  0  0  0
  9 13  1  0  0  0  0
  8 14  1  0  0  0  0
  7 15  1  0  0  0  0
 10 16  1  0  0  0  0
 16  7  1  0  0  0  0
 16 17  1  0  0  0  0
 16 18  1  0  0  0  0
  4 19  1  0  0  0  0
 19  3  1  0  0  0  0
  1 20  1  0  0  0  0
  2 21  1  0  0  0  0
  3 22  1  0  0  0  0
  4 23  1  0  0  0  0
  5 24  1  0  0  0  0
  6 25  1  0  0  0  0
 19 26  1  0  0  0  0
 19 27  1  0  0  0  0
M  END
>  <Substance ID> (114)
114

>  <Mouse_Female_Canc> (114)
1

>  <SAL> (114)
1

>  <Rat_Male_Canc> (114)
1

>  <TD50_Rat> (114)
NP

>  <TD50_Mouse> (114)
NP

>  <Rat_Female_Canc> (114)
1

>  <Canc> (114)
1

>  <MolWeight> (114)
380.91

>  <Mouse_Male_Canc> (114)
1

>  <Mouse_Male_NTP> (114)
ND

>  <ChemName> (114)
Endrin

>  <Rat_Male_NTP> (114)
ND

>  <Reference> (114)
NTP12

>  <Formula> (114)
C12H8Cl6O

>  <SMILES> (114)
C12OC1C3CC2C4[C@@]5(C(=C([C@@](C34)(C5(Cl)Cl)Cl)Cl)Cl)Cl

>  <Rat_Female_NTP> (114)
ND

>  <CAS> (114)
72-20-8

>  <Mouse_Female_NTP> (114)
ND

>  <Synonyms> (114)
1,2,3,4,10,10-hexachloro-6,7-epoxy-1,4,4a,5,6,7,8,8a-octahydro-1,4-endo-endo-5,8-dimethano-naphthalene; 1,2,3,4,10,10-hexachloro-6,7-epoxy-1,4,4a,5,6,7,8,8a-octahydro-endo,endo-1,4:5,8-dimethanonaphthalene; (1aalpha,2beta,2abeta,3alpha,6alpha,6abeta,7beta,7aalpha)-3,4,5,6,9,9-hexachloro-1a,2,2a,3,6,6a,7,7a-octahydro-2,7:3,6-Dimethanonaphth[2,3-b]oxirene; (1R,4S,5R,8S)-1,2,3,4,10,10-hexachloro-1,4,4a,5,6,7,8,8a-octahydro-6,7-epoxy-1,4:5,8-dimethanonaphthalene; 2,7:3,6-Dimethanonaphth(2,3-b)oxirane, 3,4,5,6,9,9-hexachloro-1a,2,2a,3,6,6a,7,7a-octahydro-, (1aalpha,2beta,3alpha,6alpha,6abeta,7beta,7aalpha)-; 3,4,5,6,9,9-Hexachloro-1a,2,2a,3,6,6a,7,7a-octahydro-2,7:3,6-dimethanonaphth(2,3-b)oxirene; 3,4,5,6,9,9-hexachloro-1a,2,2a,3,6,6a,7,7a-octahydro-2,7:3,6-dimethanonaphth(2,3-b)oxirene, (1aA,2B,2aB,3A,6A,6aB,7B,7aA)-; compound 269; Endrex; Endrin 1.6 EC; endrin mixture; experimental insecticide 269; experimental insecticide no. 269; hexachloroepoxyoctahydro-endo,endo-dimethanonaphthalene; Hexadrin; Mendrin; Nendrin; oms 197.

$$$$
115


 21 21  0  0  0  0  0  0  0  0999 V2000
   31.6813   -7.0263    0.0002 C   0  0  0  0  0  0  0  0  0  0  0  0
   31.7231   -8.3569    0.0003 C   0  0  0  0  0  0  0  0  0  0  0  0
   34.0615   -8.4021    0.0001 C   0  0  0  0  0  0  0  0  0  0  0  0
   34.0767   -6.9358   -0.0003 C   0  0  0  0  0  0  0  0  0  0  0  0
   32.9552   -9.0347   -0.0000 N   0  0  0  0  0  0  0  0  0  0  0  0
   32.9241   -6.2759   -0.0003 C   0  0  0  0  0  0  0  0  0  0  0  0
   32.9026   -4.8119    0.0005 C   0  0  0  0  0  0  0  0  0  0  0  0
   34.1298   -4.0747    0.0011 N   0  0  0  0  0  0  0  0  0  0  0  0
   35.3549   -9.1677    0.0005 C   0  0  0  0  0  0  0  0  0  0  0  0
   36.5417   -8.1863   -0.0004 C   0  0  0  0  0  0  0  0  0  0  0  0
   31.5347   -4.0520    0.0006 S   0  0  0  0  0  0  0  0  0  0  0  0
   30.8028   -6.5485    0.0005 H   0  0  0  0  0  0  0  0  0  0  0  0
   30.8704   -8.8792    0.0005 H   0  0  0  0  0  0  0  0  0  0  0  0
   34.9444   -6.4388   -0.0006 H   0  0  0  0  0  0  0  0  0  0  0  0
   34.1125   -3.0749    0.0016 H   0  0  0  0  0  0  0  0  0  0  0  0
   35.0043   -4.5597    0.0009 H   0  0  0  0  0  0  0  0  0  0  0  0
   35.4002   -9.7425    0.8176 H   0  0  0  0  0  0  0  0  0  0  0  0
   35.3999   -9.7437   -0.8157 H   0  0  0  0  0  0  0  0  0  0  0  0
   37.3996   -8.7000   -0.0001 H   0  0  0  0  0  0  0  0  0  0  0  0
   36.4987   -7.6098    0.8155 H   0  0  0  0  0  0  0  0  0  0  0  0
   36.4985   -7.6111   -0.8173 H   0  0  0  0  0  0  0  0  0  0  0  0
  1  2  2  0  0  0  0
  3  4  1  0  0  0  0
  1  6  1  0  0  0  0
  2  5  1  0  0  0  0
  5  3  2  0  0  0  0
  4  6  2  0  0  0  0
  6  7  1  0  0  0  0
  7  8  1  0  0  0  0
  3  9  1  0  0  0  0
  9 10  1  0  0  0  0
  7 11  2  0  0  0  0
  1 12  1  0  0  0  0
  2 13  1  0  0  0  0
  4 14  1  0  0  0  0
  8 15  1  0  0  0  0
  8 16  1  0  0  0  0
  9 17  1  0  0  0  0
  9 18  1  0  0  0  0
 10 19  1  0  0  0  0
 10 20  1  0  0  0  0
 10 21  1  0  0  0  0
M  END
>  <Substance ID> (115)
115

>  <Mouse_Female_Canc> (115)
1

>  <SAL> (115)
1

>  <Rat_Male_Canc> (115)
1

>  <TD50_Rat> (115)
NP

>  <TD50_Mouse> (115)
NP

>  <Rat_Female_Canc> (115)
1

>  <Canc> (115)
1

>  <MolWeight> (115)
166.24

>  <Mouse_Male_Canc> (115)
1

>  <Mouse_Male_NTP> (115)
ND

>  <ChemName> (115)
Ethionamide

>  <Rat_Male_NTP> (115)
ND

>  <Reference> (115)
NTP46

>  <Formula> (115)
C8H10N2S

>  <SMILES> (115)
NC(=S)C1=CC(=NC=C1)CC

>  <Rat_Female_NTP> (115)
ND

>  <CAS> (115)
536-33-4

>  <Mouse_Female_NTP> (115)
ND

>  <Synonyms> (115)
1314 Th; 2-ethyl-4-aminothiocarbonylpyridine; etimid; Etiocidan; etionamid; etionid; etionizine; ETP; f.i. 58-30; Iridocin; Nisotin; sertinon; teberus; th 1314; thiomid; Tio-Mid; Trecator; Trecator-SC; Trescatyl; Tubermin; tuberoid; 2-ethyl-4-pyridinecarbothioamide; 2-ethyl-4-thiocarbamoylpyridine; 2-ethylisonicotinic acid thiomide; 2-ethylisonicotinic thioamide; 2-Ethylisonicotinoylthioamide; 2-ethylisothionicotinamide; 2-Ethylthioisonicotinamide; 3-Ethylisothionicotinamide; alpha-ethylisonicotinic acid thioamide; alpha-ethylisonicotinoylthioamide; alpha-ethylisothionicotinamide; alpha-ethylthioisonicotinamide; Aetina; amidazin; Bayer 5312; ETH; Ethatyl; Ethimide; ethina; ethinamide; Ethioniamide; ethylisothiamide; ethyonomide.

$$$$
116


  5  4  0  0  0  0  0  0  0  0999 V2000
   38.3336  -13.6658   -0.4767 C   0  0  0  0  0  0  0  0  0  0  0  0
   36.5190  -13.5204    0.5703 I   0  0  0  0  0  0  0  0  0  0  0  0
   39.8321  -12.6330    0.5710 I   0  0  0  0  0  0  0  0  0  0  0  0
   38.8748  -15.6862   -0.6641 I   0  0  0  0  0  0  0  0  0  0  0  0
   38.2262  -13.2642   -1.3862 H   0  0  0  0  0  0  0  0  0  0  0  0
  1  2  1  0  0  0  0
  1  3  1  0  0  0  0
  1  4  1  0  0  0  0
  1  5  1  0  0  0  0
M  END
>  <Substance ID> (116)
116

>  <Mouse_Female_Canc> (116)
1

>  <SAL> (116)
3

>  <Rat_Male_Canc> (116)
1

>  <TD50_Rat> (116)
NP

>  <TD50_Mouse> (116)
NP

>  <Rat_Female_Canc> (116)
1

>  <Canc> (116)
1

>  <MolWeight> (116)
393.73

>  <Mouse_Male_Canc> (116)
1

>  <Mouse_Male_NTP> (116)
ND

>  <ChemName> (116)
Iodoform

>  <Rat_Male_NTP> (116)
ND

>  <Reference> (116)
NTP110

>  <Formula> (116)
CHI3

>  <SMILES> (116)
IC(I)I

>  <Rat_Female_NTP> (116)
ND

>  <CAS> (116)
75-47-8

>  <Mouse_Female_NTP> (116)
ND

>  <Synonyms> (116)
Triiodomethane.

$$$$
117


 67 70  0  0  0  0  0  0  0  0999 V2000
   32.0939  -19.5229   -0.5146 C   0  0  0  0  0  0  0  0  0  0  0  0
   30.7413  -20.2774   -0.2989 C   0  0  0  0  0  0  0  0  0  0  0  0
   30.9611  -21.8160   -0.5731 C   0  0  2  0  0  0  0  0  0  0  0  0
   29.6230  -22.5991   -0.2111 C   0  0  1  0  0  0  0  0  0  0  0  0
   30.9683  -24.6360   -0.9154 C   0  0  0  0  0  0  0  0  0  0  0  0
   28.5759  -25.0771   -0.3414 C   0  0  0  0  0  0  0  0  0  0  0  0
   27.1970  -23.1234   -0.9584 C   0  0  0  0  0  0  0  0  0  0  0  0
   28.5780  -22.3395   -1.2855 C   0  0  0  0  0  0  0  0  0  0  0  0
   32.0352  -22.4079    0.2379 C   0  0  1  0  0  0  0  0  0  0  0  0
   27.3125  -24.3715    0.0587 C   0  0  2  0  0  0  0  0  0  0  0  0
   29.8768  -24.1835   -0.0489 C   0  0  1  0  0  0  0  0  0  0  0  0
   32.2815  -23.8763   -0.3901 C   0  0  0  0  0  0  0  0  0  0  0  0
   29.1053  -22.0263    1.1844 C   0  0  0  0  0  0  0  0  0  0  0  0
   33.1552  -20.1592    0.4304 C   0  0  1  0  0  0  0  0  0  0  0  0
   33.3090  -21.6117    0.0671 C   0  0  2  0  0  0  0  0  0  0  0  0
   34.4589  -22.1053    0.9442 C   0  0  0  0  0  0  0  0  0  0  0  0
   35.3564  -20.8359    1.0201 C   0  0  0  0  0  0  0  0  0  0  0  0
   34.6316  -19.7838    0.0959 C   0  0  1  0  0  0  0  0  0  0  0  0
   32.7482  -19.9648    1.9325 C   0  0  0  0  0  0  0  0  0  0  0  0
   35.1350  -18.2269    0.1864 C   0  0  2  0  0  0  0  0  0  0  0  0
   36.6305  -18.0639   -0.3113 C   0  0  0  0  0  0  0  0  0  0  0  0
   37.6733  -18.6972    0.6448 C   0  0  0  0  0  0  0  0  0  0  0  0
   38.9270  -19.0334   -0.0785 C   0  0  0  0  0  0  0  0  0  0  0  0
   35.0397  -17.5868    1.5942 C   0  0  0  0  0  0  0  0  0  0  0  0
   39.1184  -18.6126   -1.2234 O   0  0  0  0  0  0  0  0  0  0  0  0
   39.8532  -19.8785    0.5237 O   0  0  0  0  0  0  0  0  0  0  0  0
   26.1542  -25.1960   -0.0624 O   0  0  0  0  0  0  0  0  0  0  0  0
   30.2824  -24.3424    0.9622 H   0  0  0  0  0  0  0  0  0  0  0  0
   31.2953  -21.9748   -1.6089 H   0  0  0  0  0  0  0  0  0  0  0  0
   33.6157  -21.6156   -0.9883 H   0  0  0  0  0  0  0  0  0  0  0  0
   34.4992  -17.6513   -0.5048 H   0  0  0  0  0  0  0  0  0  0  0  0
   31.7263  -22.4080    1.2853 H   0  0  0  0  0  0  0  0  0  0  0  0
   32.3869  -19.6170   -1.4660 H   0  0  0  0  0  0  0  0  0  0  0  0
   31.9808  -18.5540   -0.2943 H   0  0  0  0  0  0  0  0  0  0  0  0
   30.4306  -20.1458    0.6424 H   0  0  0  0  0  0  0  0  0  0  0  0
   30.0536  -19.9194   -0.9305 H   0  0  0  0  0  0  0  0  0  0  0  0
   31.0851  -25.6264   -0.8409 H   0  0  0  0  0  0  0  0  0  0  0  0
   30.7818  -24.3926   -1.8672 H   0  0  0  0  0  0  0  0  0  0  0  0
   28.6470  -25.9306    0.1748 H   0  0  0  0  0  0  0  0  0  0  0  0
   28.5367  -25.2809   -1.3196 H   0  0  0  0  0  0  0  0  0  0  0  0
   26.5583  -22.4642   -0.5617 H   0  0  0  0  0  0  0  0  0  0  0  0
   26.8287  -23.4666   -1.8225 H   0  0  0  0  0  0  0  0  0  0  0  0
   28.3933  -21.3577   -1.3309 H   0  0  0  0  0  0  0  0  0  0  0  0
   28.9309  -22.6538   -2.1668 H   0  0  0  0  0  0  0  0  0  0  0  0
   27.3534  -24.1023    1.0209 H   0  0  0  0  0  0  0  0  0  0  0  0
   32.9099  -23.7791   -1.1619 H   0  0  0  0  0  0  0  0  0  0  0  0
   32.7045  -24.4453    0.3151 H   0  0  0  0  0  0  0  0  0  0  0  0
   29.7922  -22.1969    1.8907 H   0  0  0  0  0  0  0  0  0  0  0  0
   28.2503  -22.4803    1.4351 H   0  0  0  0  0  0  0  0  0  0  0  0
   28.9484  -21.0419    1.1036 H   0  0  0  0  0  0  0  0  0  0  0  0
   34.9422  -22.8695    0.5171 H   0  0  0  0  0  0  0  0  0  0  0  0
   34.1359  -22.3790    1.8501 H   0  0  0  0  0  0  0  0  0  0  0  0
   35.4144  -20.4998    1.9601 H   0  0  0  0  0  0  0  0  0  0  0  0
   36.2756  -21.0322    0.6785 H   0  0  0  0  0  0  0  0  0  0  0  0
   34.8369  -19.8318   -0.8816 H   0  0  0  0  0  0  0  0  0  0  0  0
   33.4410  -20.3794    2.5224 H   0  0  0  0  0  0  0  0  0  0  0  0
   31.8646  -20.4028    2.0982 H   0  0  0  0  0  0  0  0  0  0  0  0
   32.6791  -18.9881    2.1359 H   0  0  0  0  0  0  0  0  0  0  0  0
   36.7154  -18.5012   -1.2065 H   0  0  0  0  0  0  0  0  0  0  0  0
   36.8309  -17.0878   -0.3962 H   0  0  0  0  0  0  0  0  0  0  0  0
   37.8823  -18.0481    1.3762 H   0  0  0  0  0  0  0  0  0  0  0  0
   37.2898  -19.5323    1.0391 H   0  0  0  0  0  0  0  0  0  0  0  0
   35.3660  -16.6424    1.5542 H   0  0  0  0  0  0  0  0  0  0  0  0
   35.6032  -18.1067    2.2362 H   0  0  0  0  0  0  0  0  0  0  0  0
   34.0882  -17.5974    1.9020 H   0  0  0  0  0  0  0  0  0  0  0  0
   40.6355  -20.0051   -0.0862 H   0  0  0  0  0  0  0  0  0  0  0  0
   25.3453  -24.6780    0.2157 H   0  0  0  0  0  0  0  0  0  0  0  0
  1  2  1  0  0  0  0
  2  3  1  0  0  0  0
  8  4  1  0  0  0  0
  4 11  1  0  0  0  0
  4  3  1  0  0  0  0
  9 12  1  0  0  0  0
  5 11  1  0  0  0  0
  6 10  1  0  0  0  0
  7  8  1  0  0  0  0
  3  9  1  0  0  0  0
  7 10  1  0  0  0  0
  6 11  1  0  0  0  0
  5 12  1  0  0  0  0
  9 15  1  0  0  0  0
  1 14  1  0  0  0  0
  4 13  1  1  0  0  0
 14 15  1  0  0  0  0
 16 17  1  0  0  0  0
 17 18  1  0  0  0  0
 18 14  1  0  0  0  0
 15 16  1  0  0  0  0
 14 19  1  1  0  0  0
 18 20  1  1  0  0  0
 20 21  1  0  0  0  0
 21 22  1  0  0  0  0
 22 23  1  0  0  0  0
 20 24  1  0  0  0  0
 23 25  2  0  0  0  0
 23 26  1  0  0  0  0
 10 27  1  6  0  0  0
 11 28  1  1  0  0  0
  3 29  1  6  0  0  0
 15 30  1  6  0  0  0
 20 31  1  6  0  0  0
  9 32  1  1  0  0  0
  1 33  1  0  0  0  0
  1 34  1  0  0  0  0
  2 35  1  0  0  0  0
  2 36  1  0  0  0  0
  5 37  1  0  0  0  0
  5 38  1  0  0  0  0
  6 39  1  0  0  0  0
  6 40  1  0  0  0  0
  7 41  1  0  0  0  0
  7 42  1  0  0  0  0
  8 43  1  0  0  0  0
  8 44  1  0  0  0  0
 10 45  1  0  0  0  0
 12 46  1  0  0  0  0
 12 47  1  0  0  0  0
 13 48  1  0  0  0  0
 13 49  1  0  0  0  0
 13 50  1  0  0  0  0
 16 51  1  0  0  0  0
 16 52  1  0  0  0  0
 17 53  1  0  0  0  0
 17 54  1  0  0  0  0
 18 55  1  0  0  0  0
 19 56  1  0  0  0  0
 19 57  1  0  0  0  0
 19 58  1  0  0  0  0
 21 59  1  0  0  0  0
 21 60  1  0  0  0  0
 22 61  1  0  0  0  0
 22 62  1  0  0  0  0
 24 63  1  0  0  0  0
 24 64  1  0  0  0  0
 24 65  1  0  0  0  0
 26 66  1  0  0  0  0
 27 67  1  0  0  0  0
M  END
>  <Substance ID> (117)
117

>  <Mouse_Female_Canc> (117)
1

>  <SAL> (117)
1

>  <Rat_Male_Canc> (117)
1

>  <TD50_Rat> (117)
NP

>  <TD50_Mouse> (117)
NP

>  <Rat_Female_Canc> (117)
1

>  <Canc> (117)
1

>  <MolWeight> (117)
376.58

>  <Mouse_Male_Canc> (117)
1

>  <Mouse_Male_NTP> (117)
ND

>  <ChemName> (117)
Lithocolic Acid

>  <Rat_Male_NTP> (117)
ND

>  <Reference> (117)
NTP175

>  <Formula> (117)
C24H40O3

>  <SMILES> (117)
[C@@]12([C@]3([C@@]([C@@]4([C@](CC3)(C[C@@H](CC4)O)[H])C)(CC[C@]1([C@H]([C@@H](CCC(O)=O)C)CC2)C)[H])[H])[H]

>  <Rat_Female_NTP> (117)
ND

>  <CAS> (117)
434-13-9

>  <Mouse_Female_NTP> (117)
ND

>  <Synonyms> (117)
17beta-(1-methyl-3-carboxypropyl)etiocholan-3alpha-ol; 3alpha-Hydroxy-5beta-cholan-24-oic acid; 3alphahydroxy-5beta-cholanic acid; 3alpha-Hydroxy-5beta-cholanoic acid; 3alpha-hydroxycholanic acid; cholan-24-oic acid, 3-hydroxy-, (3alpha,5beta)-.

$$$$
118


 38 37  0  0  0  0  0  0  0  0999 V2000
   40.7951  -30.3938   -0.3377 O   0  0  0  0  0  0  0  0  0  0  0  0
   36.6860  -32.4368    0.1012 P   0  0  0  0  0  0  0  0  0  0  0  0
   36.2871  -32.2061    1.3587 O   0  0  0  0  0  0  0  0  0  0  0  0
   38.3257  -31.6437   -0.4213 S   0  0  0  0  0  0  0  0  0  0  0  0
   39.8363  -32.4947    0.1598 C   0  0  1  0  0  0  0  0  0  0  0  0
   39.9199  -33.9834   -0.3196 C   0  0  0  0  0  0  0  0  0  0  0  0
   40.9838  -31.6146   -0.2751 C   0  0  0  0  0  0  0  0  0  0  0  0
   41.1548  -34.7866    0.1289 C   0  0  0  0  0  0  0  0  0  0  0  0
   41.1682  -36.0088   -0.0648 O   0  0  0  0  0  0  0  0  0  0  0  0
   42.2332  -32.1098   -0.6099 O   0  0  0  0  0  0  0  0  0  0  0  0
   42.2742  -34.1948    0.7183 O   0  0  0  0  0  0  0  0  0  0  0  0
   43.2752  -35.2016    0.9492 C   0  0  0  0  0  0  0  0  0  0  0  0
   44.5973  -34.5406    1.3819 C   0  0  0  0  0  0  0  0  0  0  0  0
   36.8098  -33.9096   -0.2058 O   0  0  0  0  0  0  0  0  0  0  0  0
   35.6895  -31.8737   -0.8947 O   0  0  0  0  0  0  0  0  0  0  0  0
   34.5409  -31.3292   -0.2229 C   0  0  0  0  0  0  0  0  0  0  0  0
   36.1067  -34.6828    0.7882 C   0  0  0  0  0  0  0  0  0  0  0  0
   43.0930  -31.0178   -0.9561 C   0  0  0  0  0  0  0  0  0  0  0  0
   44.5002  -31.5444   -1.2805 C   0  0  0  0  0  0  0  0  0  0  0  0
   39.8504  -32.6012    1.1540 H   0  0  0  0  0  0  0  0  0  0  0  0
   39.1092  -34.4579    0.0232 H   0  0  0  0  0  0  0  0  0  0  0  0
   39.9073  -33.9807   -1.3195 H   0  0  0  0  0  0  0  0  0  0  0  0
   42.9626  -35.8198    1.6704 H   0  0  0  0  0  0  0  0  0  0  0  0
   43.4242  -35.7196    0.1069 H   0  0  0  0  0  0  0  0  0  0  0  0
   45.2874  -35.2467    1.5404 H   0  0  0  0  0  0  0  0  0  0  0  0
   44.4514  -34.0227    2.2249 H   0  0  0  0  0  0  0  0  0  0  0  0
   44.9128  -33.9225    0.6619 H   0  0  0  0  0  0  0  0  0  0  0  0
   33.9003  -30.9651   -0.8990 H   0  0  0  0  0  0  0  0  0  0  0  0
   34.8302  -30.5946    0.3908 H   0  0  0  0  0  0  0  0  0  0  0  0
   34.0921  -32.0486    0.3073 H   0  0  0  0  0  0  0  0  0  0  0  0
   36.1940  -35.6563    0.5770 H   0  0  0  0  0  0  0  0  0  0  0  0
   35.1398  -34.4275    0.7872 H   0  0  0  0  0  0  0  0  0  0  0  0
   36.4980  -34.5015    1.6904 H   0  0  0  0  0  0  0  0  0  0  0  0
   42.7232  -30.5451   -1.7559 H   0  0  0  0  0  0  0  0  0  0  0  0
   43.1463  -30.3809   -0.1870 H   0  0  0  0  0  0  0  0  0  0  0  0
   45.0960  -30.7783   -1.5214 H   0  0  0  0  0  0  0  0  0  0  0  0
   44.4492  -32.1810   -2.0500 H   0  0  0  0  0  0  0  0  0  0  0  0
   44.8722  -32.0169   -0.4816 H   0  0  0  0  0  0  0  0  0  0  0  0
  2  3  2  0  0  0  0
  2  4  1  0  0  0  0
  4  5  1  0  0  0  0
  5  6  1  0  0  0  0
  5  7  1  0  0  0  0
  7  1  2  0  0  0  0
  6  8  1  0  0  0  0
  8  9  2  0  0  0  0
  7 10  1  0  0  0  0
  8 11  1  0  0  0  0
 11 12  1  0  0  0  0
 12 13  1  0  0  0  0
  2 14  1  0  0  0  0
  2 15  1  0  0  0  0
 15 16  1  0  0  0  0
 14 17  1  0  0  0  0
 10 18  1  0  0  0  0
 18 19  1  0  0  0  0
  5 20  1  0  0  0  0
  6 21  1  0  0  0  0
  6 22  1  0  0  0  0
 12 23  1  0  0  0  0
 12 24  1  0  0  0  0
 13 25  1  0  0  0  0
 13 26  1  0  0  0  0
 13 27  1  0  0  0  0
 16 28  1  0  0  0  0
 16 29  1  0  0  0  0
 16 30  1  0  0  0  0
 17 31  1  0  0  0  0
 17 32  1  0  0  0  0
 17 33  1  0  0  0  0
 18 34  1  0  0  0  0
 18 35  1  0  0  0  0
 19 36  1  0  0  0  0
 19 37  1  0  0  0  0
 19 38  1  0  0  0  0
M  END
>  <Substance ID> (118)
118

>  <Mouse_Female_Canc> (118)
1

>  <SAL> (118)
1

>  <Rat_Male_Canc> (118)
1

>  <TD50_Rat> (118)
NP

>  <TD50_Mouse> (118)
NP

>  <Rat_Female_Canc> (118)
1

>  <Canc> (118)
1

>  <MolWeight> (118)
314.29

>  <Mouse_Male_Canc> (118)
1

>  <Mouse_Male_NTP> (118)
ND

>  <ChemName> (118)
Malaoxon

>  <Rat_Male_NTP> (118)
ND

>  <Reference> (118)
NTP135

>  <Formula> (118)
C10H19O7PS

>  <SMILES> (118)
O=C(C(SP(=O)(OC)OC)CC(=O)OCC)OCC

>  <Rat_Female_NTP> (118)
ND

>  <CAS> (118)
1634-78-2

>  <Mouse_Female_NTP> (118)
ND

>  <Synonyms> (118)
O,O-dimethyl-S-(1,2-dicarbethoxy)ethyl phosphorothioate; O,O-dimethyl S-1,2-bis(ethoxycarbonyl)ethyl phosphorothioate; diethyl((dimethoxyphosphinyl)thio)butanedioate; ((dimethoxyphosphinyl)thio)butanedioic acid diethyl ester; carbethoxy malaoxon; liromat; Malathion-o-analog; malathion oxygen analog; oxycarbophos; phosphorothioic acid, O,O-dimethyl ester, S-ester with 1,2-bis(methoxy-carbonyl)ethanethiol; S-(1,2-diethoxycarbonyl)ethyl O,O-dimethyl phosphorothioate; succinic acid, mercapto-, diethyl ester, S-ester with O,O-dimethylphosphorothioate.

$$$$
119


 38 37  0  0  0  0  0  0  0  0999 V2000
   35.6953  -39.9981    0.0809 P   0  0  0  0  0  0  0  0  0  0  0  0
   35.0428  -39.5063    1.5374 S   0  0  0  0  0  0  0  0  0  0  0  0
   37.3998  -39.2776   -0.3823 S   0  0  0  0  0  0  0  0  0  0  0  0
   38.8722  -40.1817    0.2483 C   0  0  1  0  0  0  0  0  0  0  0  0
   38.9683  -41.5949   -0.4532 C   0  0  0  0  0  0  0  0  0  0  0  0
   40.0566  -39.2931   -0.0390 C   0  0  0  0  0  0  0  0  0  0  0  0
   39.9165  -38.3289   -0.8028 O   0  0  0  0  0  0  0  0  0  0  0  0
   40.2362  -42.4482   -0.1951 C   0  0  0  0  0  0  0  0  0  0  0  0
   40.1907  -43.6659   -0.4154 O   0  0  0  0  0  0  0  0  0  0  0  0
   41.2722  -39.4882    0.6334 O   0  0  0  0  0  0  0  0  0  0  0  0
   41.4507  -41.9010    0.2186 O   0  0  0  0  0  0  0  0  0  0  0  0
   42.4538  -42.9304    0.3014 C   0  0  0  0  0  0  0  0  0  0  0  0
   43.8233  -42.3093    0.6476 C   0  0  0  0  0  0  0  0  0  0  0  0
   35.8136  -41.5038    0.0113 O   0  0  0  0  0  0  0  0  0  0  0  0
   34.7836  -39.5891   -1.0691 O   0  0  0  0  0  0  0  0  0  0  0  0
   33.5055  -39.1203   -0.5909 C   0  0  0  0  0  0  0  0  0  0  0  0
   34.9625  -42.1198    1.0051 C   0  0  0  0  0  0  0  0  0  0  0  0
   42.2723  -38.5182    0.2680 C   0  0  0  0  0  0  0  0  0  0  0  0
   42.9056  -38.8721   -1.0960 C   0  0  0  0  0  0  0  0  0  0  0  0
   38.8265  -40.3692    1.2295 H   0  0  0  0  0  0  0  0  0  0  0  0
   38.1812  -42.1320   -0.1498 H   0  0  0  0  0  0  0  0  0  0  0  0
   38.9079  -41.4422   -1.4397 H   0  0  0  0  0  0  0  0  0  0  0  0
   42.1981  -43.5848    1.0129 H   0  0  0  0  0  0  0  0  0  0  0  0
   42.5174  -43.4016   -0.5783 H   0  0  0  0  0  0  0  0  0  0  0  0
   44.5129  -43.0313    0.7029 H   0  0  0  0  0  0  0  0  0  0  0  0
   43.7633  -41.8383    1.5277 H   0  0  0  0  0  0  0  0  0  0  0  0
   44.0825  -41.6552   -0.0631 H   0  0  0  0  0  0  0  0  0  0  0  0
   32.9329  -38.8606   -1.3685 H   0  0  0  0  0  0  0  0  0  0  0  0
   33.6416  -38.3265    0.0019 H   0  0  0  0  0  0  0  0  0  0  0  0
   33.0549  -39.8484   -0.0743 H   0  0  0  0  0  0  0  0  0  0  0  0
   35.0495  -43.1144    0.9489 H   0  0  0  0  0  0  0  0  0  0  0  0
   34.0116  -41.8590    0.8381 H   0  0  0  0  0  0  0  0  0  0  0  0
   35.2369  -41.8126    1.9163 H   0  0  0  0  0  0  0  0  0  0  0  0
   41.8467  -37.6153    0.2075 H   0  0  0  0  0  0  0  0  0  0  0  0
   42.9867  -38.5043    0.9675 H   0  0  0  0  0  0  0  0  0  0  0  0
   43.5959  -38.1878   -1.3311 H   0  0  0  0  0  0  0  0  0  0  0  0
   42.1959  -38.8845   -1.8004 H   0  0  0  0  0  0  0  0  0  0  0  0
   43.3356  -39.7732   -1.0406 H   0  0  0  0  0  0  0  0  0  0  0  0
  1  2  2  0  0  0  0
  1  3  1  0  0  0  0
  3  4  1  0  0  0  0
  4  5  1  0  0  0  0
  4  6  1  0  0  0  0
  6  7  2  0  0  0  0
  5  8  1  0  0  0  0
  8  9  2  0  0  0  0
  6 10  1  0  0  0  0
  8 11  1  0  0  0  0
 11 12  1  0  0  0  0
 12 13  1  0  0  0  0
  1 14  1  0  0  0  0
  1 15  1  0  0  0  0
 15 16  1  0  0  0  0
 14 17  1  0  0  0  0
 10 18  1  0  0  0  0
 18 19  1  0  0  0  0
  4 20  1  0  0  0  0
  5 21  1  0  0  0  0
  5 22  1  0  0  0  0
 12 23  1  0  0  0  0
 12 24  1  0  0  0  0
 13 25  1  0  0  0  0
 13 26  1  0  0  0  0
 13 27  1  0  0  0  0
 16 28  1  0  0  0  0
 16 29  1  0  0  0  0
 16 30  1  0  0  0  0
 17 31  1  0  0  0  0
 17 32  1  0  0  0  0
 17 33  1  0  0  0  0
 18 34  1  0  0  0  0
 18 35  1  0  0  0  0
 19 36  1  0  0  0  0
 19 37  1  0  0  0  0
 19 38  1  0  0  0  0
M  END
>  <Substance ID> (119)
119

>  <Mouse_Female_Canc> (119)
1

>  <SAL> (119)
1

>  <Rat_Male_Canc> (119)
1

>  <TD50_Rat> (119)
NP

>  <TD50_Mouse> (119)
NP

>  <Rat_Female_Canc> (119)
1

>  <Canc> (119)
1

>  <MolWeight> (119)
330.35

>  <Mouse_Male_Canc> (119)
1

>  <Mouse_Male_NTP> (119)
ND

>  <ChemName> (119)
Malathion

>  <Rat_Male_NTP> (119)
ND

>  <Reference> (119)
NTP24

>  <Formula> (119)
C10H19O6PS2

>  <SMILES> (119)
O=C(C(SP(=S)(OC)OC)CC(=O)OCC)OCC

>  <Rat_Female_NTP> (119)
ND

>  <CAS> (119)
121-75-5

>  <Mouse_Female_NTP> (119)
ND

>  <Synonyms> (119)
1,2-di(ethoxycarbonyl)ethyl O,O-dimethyl phosphorodithioate; O,O-dimethyldithiophosphate diethyl mercaptosuccinate; O,O-dimethyl phosphorodithioate ester of diethyl mercaptosuccinate; O,O-dimethyl S-(1,2-dicarbethoxyethyl) dithiophosphate; O,O-dimethyl S-(1,2-dicarbethoxyethyl)phosphorodithioate; O,O-dimethyl-S-(1,2-dicarbethoxyethyl) thiothionophosphate; O,O-dimethyl-S-(1,2-bis(ethoxycarbonyl)ethyl)dithiophosphate; O,O-dimethyl S-1,2-di(ethoxycarbonyl)ethyl phosphorodithioate; Dicarbethoxyethyl-O,O-dimethyldithiophosphate; Dicarboethoxyethyl O,O-dimethyl phosphorodithioate; diethyl [(dimethoxyphosphinothioyl)thio]butanedioate; diethyl (dimethoxyphosphinothioylthio)succinate; diethyl mercaptosuccinate, O,O-dimethyl dithiophosphate, S-ester; Diethyl mercaptosuccinate, O,O-dimethyl phosphorodithioate; diethyl mercaptosuccinate, O,O-dimethyl thiophosphate; diethyl mercaptosuccinate S-ester with O,O-dimethylphosphorodithioate; diethyl mercaptosuccinic acid O,O-dimethyl phosphorodithioate; Diethyl mercaptosuccinic acid, S-ester of O,O-dimethyl phosphorodithioate; [(Dimethoxyphosphinothioyl)thio]butanedioic acid diethyl ester; Dimethyl dithiophosphate of diethyl mercaptosuccinate; Dimethyl phosphorodithioate of diethyl mercaptosuccinate; calmathion; carbethoxy malathion; carbetovur; carbetox; carbofos; carbophos; celthion; chemathion; cimexan; Cleensheen; compound 4049; Cythion; detmol ma; emmatos; Ethiolacar; Etiol; fosfothion; fyfanon; insecticide no. 4049; karbofos; kop-thion; Lice Rid; malacide; malagran; malamar; Malaspray; Maldison; mercaptosuccinic acid diethyl ester S-ester with O,O-dimethyl phosphorothioate; mercaptothion; MLT; phosphorodithioic acid, O,O-dimethyl ester, S-ester with diethyl mercaptosuccinate; phosphothion; S-(1,2-bis(carbethoxy)ethyl) O,O-dimethyl dithiophosphate; S-1,2-bis(ethoxycarbonyl)ethyl O,O-dimethyl dithiophosphate; S-(1,2-di(ethoxycarbonyl)ethyl) dimethylphosphorothiolothionate; sadofos.

$$$$
120
 

 62 62  0  0  0  0  0  0  0  0999 V2000
    9.3659   -9.1863   -0.5543 C   0  0  0  0  0  0  0  0  0  0  0  0
   13.4342   -5.6052    0.4025 C   0  0  0  0  0  0  0  0  0  0  0  0
   10.4623   -5.4331    0.2989 O   0  0  0  0  0  0  0  0  0  0  0  0
    9.0304   -7.6041    0.9043 H   0  0  0  0  0  0  0  0  0  0  0  0
    9.8827   -7.9318    0.2933 C   0  0  2  0  0  0  0  0  0  0  0  0
   12.7431   -6.9659    0.1442 C   0  0  1  0  0  0  0  0  0  0  0  0
   13.5187   -7.6957   -0.1270 H   0  0  0  0  0  0  0  0  0  0  0  0
    9.5671   -6.3752   -1.2854 H   0  0  0  0  0  0  0  0  0  0  0  0
   10.3397   -6.6042   -0.5387 C   0  0  2  0  0  0  0  0  0  0  0  0
   12.0024   -7.3838    1.5123 C   0  0  0  0  0  0  0  0  0  0  0  0
   11.0973   -8.5009    1.1516 C   0  0  0  0  0  0  0  0  0  0  0  0
   11.7185   -6.8896   -1.1098 C   0  0  0  0  0  0  0  0  0  0  0  0
    8.8771  -10.2725    0.4236 C   0  0  0  0  0  0  0  0  0  0  0  0
   10.3896   -9.8537   -1.5125 C   0  0  0  0  0  0  0  0  0  0  0  0
    8.6506   -8.8095   -1.1429 H   0  0  0  0  0  0  0  0  0  0  0  0
   13.9081   -5.3088   -0.4267 H   0  0  0  0  0  0  0  0  0  0  0  0
   14.0950   -5.7023    1.1468 H   0  0  0  0  0  0  0  0  0  0  0  0
   12.7467   -4.9241    0.6544 H   0  0  0  0  0  0  0  0  0  0  0  0
    9.5715   -5.2116    0.6955 H   0  0  0  0  0  0  0  0  0  0  0  0
   11.4780   -6.6131    1.8744 H   0  0  0  0  0  0  0  0  0  0  0  0
   12.6707   -7.6824    2.1936 H   0  0  0  0  0  0  0  0  0  0  0  0
   10.7468   -8.9298    1.9841 H   0  0  0  0  0  0  0  0  0  0  0  0
   11.5992   -9.1779    0.6132 H   0  0  0  0  0  0  0  0  0  0  0  0
   11.9913   -6.1557   -1.7319 H   0  0  0  0  0  0  0  0  0  0  0  0
   11.7129   -7.7599   -1.6023 H   0  0  0  0  0  0  0  0  0  0  0  0
    8.5505  -11.0641   -0.0928 H   0  0  0  0  0  0  0  0  0  0  0  0
    8.1313   -9.9083    0.9815 H   0  0  0  0  0  0  0  0  0  0  0  0
    9.6319  -10.5510    1.0176 H   0  0  0  0  0  0  0  0  0  0  0  0
    9.9545  -10.6206   -1.9842 H   0  0  0  0  0  0  0  0  0  0  0  0
   11.1715  -10.1873   -0.9857 H   0  0  0  0  0  0  0  0  0  0  0  0
   10.7030   -9.1837   -2.1854 H   0  0  0  0  0  0  0  0  0  0  0  0
   17.4341  -14.6326   -1.1928 H   0  0  0  0  0  0  0  0  0  0  0  0
   20.6567  -12.1230    0.6294 H   0  0  0  0  0  0  0  0  0  0  0  0
   18.1248  -11.8030    0.0511 H   0  0  0  0  0  0  0  0  0  0  0  0
   16.0719  -13.7915    0.2818 C   0  0  0  0  0  0  0  0  0  0  0  0
   17.5183  -13.9779   -0.3145 C   0  0  2  0  0  0  0  0  0  0  0  0
   20.2998  -13.0772    0.2178 C   0  0  1  0  0  0  0  0  0  0  0  0
   21.5117  -13.9756   -0.0978 C   0  0  0  0  0  0  0  0  0  0  0  0
   17.2867  -12.0462   -1.8247 O   0  0  0  0  0  0  0  0  0  0  0  0
   18.0961  -12.5482   -0.7599 C   0  0  2  0  0  0  0  0  0  0  0  0
   19.3606  -13.7026    1.3389 C   0  0  0  0  0  0  0  0  0  0  0  0
   18.5436  -14.7320    0.6494 C   0  0  0  0  0  0  0  0  0  0  0  0
   19.5108  -12.8359   -1.1547 C   0  0  0  0  0  0  0  0  0  0  0  0
   16.0113  -12.8850    1.5368 C   0  0  0  0  0  0  0  0  0  0  0  0
   15.4885  -15.1712    0.6378 C   0  0  0  0  0  0  0  0  0  0  0  0
   15.5369  -13.3322   -0.4274 H   0  0  0  0  0  0  0  0  0  0  0  0
   22.0717  -13.5444   -0.8051 H   0  0  0  0  0  0  0  0  0  0  0  0
   21.1918  -14.8655   -0.4232 H   0  0  0  0  0  0  0  0  0  0  0  0
   22.0589  -14.1008    0.7298 H   0  0  0  0  0  0  0  0  0  0  0  0
   16.3600  -11.8780   -1.4889 H   0  0  0  0  0  0  0  0  0  0  0  0
   18.7720  -12.9973    1.7339 H   0  0  0  0  0  0  0  0  0  0  0  0
   19.9112  -14.1210    2.0614 H   0  0  0  0  0  0  0  0  0  0  0  0
   18.0410  -15.2742    1.3228 H   0  0  0  0  0  0  0  0  0  0  0  0
   19.1361  -15.3325    0.1123 H   0  0  0  0  0  0  0  0  0  0  0  0
   19.9001  -12.0587   -1.6490 H   0  0  0  0  0  0  0  0  0  0  0  0
   19.5534  -13.6527   -1.7300 H   0  0  0  0  0  0  0  0  0  0  0  0
   15.0654  -12.8164    1.8538 H   0  0  0  0  0  0  0  0  0  0  0  0
   16.3522  -11.9734    1.3069 H   0  0  0  0  0  0  0  0  0  0  0  0
   16.5772  -13.2792    2.2610 H   0  0  0  0  0  0  0  0  0  0  0  0
   14.5701  -15.0576    1.0167 H   0  0  0  0  0  0  0  0  0  0  0  0
   16.0749  -15.6171    1.3141 H   0  0  0  0  0  0  0  0  0  0  0  0
   15.4411  -15.7362   -0.1860 H   0  0  0  0  0  0  0  0  0  0  0  0
  5 11  1  0  0  0  0
 11 10  1  0  0  0  0
 10  6  1  0  0  0  0
  6 12  1  0  0  0  0
 12  9  1  0  0  0  0
  9  5  1  0  0  0  0
  1  5  1  0  0  0  0
  6  2  1  0  0  0  0
  9  3  1  0  0  0  0
  4  5  1  0  0  0  0
  6  7  1  0  0  0  0
  8  9  1  0  0  0  0
  1 13  1  0  0  0  0
  1 14  1  0  0  0  0
  1 15  1  0  0  0  0
  2 16  1  0  0  0  0
  2 17  1  0  0  0  0
  2 18  1  0  0  0  0
  3 19  1  0  0  0  0
 10 20  1  0  0  0  0
 10 21  1  0  0  0  0
 11 22  1  0  0  0  0
 11 23  1  0  0  0  0
 12 24  1  0  0  0  0
 12 25  1  0  0  0  0
 13 26  1  0  0  0  0
 13 27  1  0  0  0  0
 13 28  1  0  0  0  0
 14 29  1  0  0  0  0
 14 30  1  0  0  0  0
 14 31  1  0  0  0  0
 36 42  1  0  0  0  0
 42 41  1  0  0  0  0
 41 37  1  0  0  0  0
 37 43  1  0  0  0  0
 43 40  1  0  0  0  0
 40 36  1  0  0  0  0
 32 36  1  0  0  0  0
 37 33  1  0  0  0  0
 40 34  1  0  0  0  0
 35 36  1  0  0  0  0
 37 38  1  0  0  0  0
 39 40  1  0  0  0  0
 35 44  1  0  0  0  0
 35 45  1  0  0  0  0
 35 46  1  0  0  0  0
 38 47  1  0  0  0  0
 38 48  1  0  0  0  0
 38 49  1  0  0  0  0
 39 50  1  0  0  0  0
 41 51  1  0  0  0  0
 41 52  1  0  0  0  0
 42 53  1  0  0  0  0
 42 54  1  0  0  0  0
 43 55  1  0  0  0  0
 43 56  1  0  0  0  0
 44 57  1  0  0  0  0
 44 58  1  0  0  0  0
 44 59  1  0  0  0  0
 45 60  1  0  0  0  0
 45 61  1  0  0  0  0
 45 62  1  0  0  0  0
M  END
>  <Substance ID> (120)
120

>  <Mouse_Female_Canc> (120)
1

>  <SAL> (120)
1

>  <Rat_Male_Canc> (120)
1

>  <TD50_Rat> (120)
NP

>  <TD50_Mouse> (120)
NP

>  <Rat_Female_Canc> (120)
1

>  <Canc> (120)
1

>  <MolWeight> (120)
156.27

>  <Mouse_Male_Canc> (120)
1

>  <Mouse_Male_NTP> (120)
ND

>  <ChemName> (120)
DL-Menthol 

>  <Rat_Male_NTP> (120)
ND

>  <Reference> (120)
NTP98

>  <Formula> (120)
C10H20O.C10H20O

>  <SMILES> (120)
OC1CC(CCC1C(C)C)C.OC1CC(C)CCC1C(C)C

>  <Rat_Female_NTP> (120)
ND

>  <CAS> (120)
15356-70-4

>  <Mouse_Female_NTP> (120)
ND

>  <Synonyms> (120)
(+-)-menthol; 1-methyl-4-isopropyl-3-hydroxycyclohexane; (1S,2R,5S)-(+)-menthol; 3-p-menthol; 4-isopropyl-1-methylcyclohexan-3-ol; 5-methyl-2-(1-methylethyl)cyclohexanol (1alpha, 2beta, 5alpha); cis-1,3-trans-1,4-(+-)-menthol; Cyclohexanol, 5-methyl-2-(1-methylethyl)-, (1alpha,2beta,5alpha)-(+-)-; DL-3-p-menthanol; (DL)-5-methyl-2-(1-methylethyl)cyclohexanol; Racementhol; RACEMIC MENTHOL U.S.P. .

$$$$
121


 36 37  0  0  0  0  0  0  0  0999 V2000
   36.1319  -60.6835    0.0772 C   0  0  0  0  0  0  0  0  0  0  0  0
   37.3290  -61.2002   -0.1658 C   0  0  0  0  0  0  0  0  0  0  0  0
   38.3869  -59.0547   -0.1873 C   0  0  0  0  0  0  0  0  0  0  0  0
   37.0389  -58.4685    0.0988 C   0  0  0  0  0  0  0  0  0  0  0  0
   38.5370  -60.3763   -0.3202 C   0  0  0  0  0  0  0  0  0  0  0  0
   35.9668  -59.2633    0.2129 C   0  0  0  0  0  0  0  0  0  0  0  0
   34.6707  -58.7602    0.4621 O   0  0  0  0  0  0  0  0  0  0  0  0
   39.9274  -61.1081   -0.6884 C   0  0  0  0  0  0  0  0  0  0  0  0
   41.2996  -60.3522   -0.3015 C   0  0  0  0  0  0  0  0  0  0  0  0
   42.3946  -61.0938   -0.1182 C   0  0  0  0  0  0  0  0  0  0  0  0
   43.8493  -59.2154    0.2452 C   0  0  0  0  0  0  0  0  0  0  0  0
   42.6665  -58.3408    0.0656 C   0  0  0  0  0  0  0  0  0  0  0  0
   43.6965  -60.5256    0.1631 C   0  0  0  0  0  0  0  0  0  0  0  0
   41.4634  -58.8755   -0.1921 C   0  0  0  0  0  0  0  0  0  0  0  0
   45.1371  -58.7017    0.4973 O   0  0  0  0  0  0  0  0  0  0  0  0
   45.1407  -57.2761    0.5479 C   0  0  0  0  0  0  0  0  0  0  0  0
   34.6532  -57.3361    0.5693 C   0  0  0  0  0  0  0  0  0  0  0  0
   39.9392  -62.7046   -0.3392 C   0  0  0  0  0  0  0  0  0  0  0  0
   38.5711  -63.5977   -1.0396 Cl  0  0  0  0  0  0  0  0  0  0  0  0
   39.9197  -62.8932    1.4212 Cl  0  0  0  0  0  0  0  0  0  0  0  0
   41.3422  -63.5746   -1.0068 Cl  0  0  0  0  0  0  0  0  0  0  0  0
   35.3392  -61.2866    0.1664 H   0  0  0  0  0  0  0  0  0  0  0  0
   37.4137  -62.1932   -0.2474 H   0  0  0  0  0  0  0  0  0  0  0  0
   39.1804  -58.4531   -0.2796 H   0  0  0  0  0  0  0  0  0  0  0  0
   36.9387  -57.4792    0.2052 H   0  0  0  0  0  0  0  0  0  0  0  0
   39.9333  -61.0277   -1.6852 H   0  0  0  0  0  0  0  0  0  0  0  0
   42.3118  -62.0885   -0.1780 H   0  0  0  0  0  0  0  0  0  0  0  0
   42.7655  -57.3482    0.1369 H   0  0  0  0  0  0  0  0  0  0  0  0
   44.4839  -61.1276    0.2959 H   0  0  0  0  0  0  0  0  0  0  0  0
   40.6704  -58.2782   -0.3118 H   0  0  0  0  0  0  0  0  0  0  0  0
   46.0689  -56.9508    0.7281 H   0  0  0  0  0  0  0  0  0  0  0  0
   44.5319  -56.9665    1.2784 H   0  0  0  0  0  0  0  0  0  0  0  0
   44.8237  -56.9102   -0.3271 H   0  0  0  0  0  0  0  0  0  0  0  0
   33.7189  -57.0261    0.7450 H   0  0  0  0  0  0  0  0  0  0  0  0
   34.9825  -56.9331   -0.2846 H   0  0  0  0  0  0  0  0  0  0  0  0
   35.2458  -57.0507    1.3225 H   0  0  0  0  0  0  0  0  0  0  0  0
  1  2  2  0  0  0  0
  3  4  1  0  0  0  0
  1  6  1  0  0  0  0
  2  5  1  0  0  0  0
  5  3  2  0  0  0  0
  4  6  2  0  0  0  0
  6  7  1  0  0  0  0
  5  8  1  0  0  0  0
  8  9  1  0  0  0  0
  9 10  2  0  0  0  0
 11 12  1  0  0  0  0
  9 14  1  0  0  0  0
 10 13  1  0  0  0  0
 13 11  2  0  0  0  0
 12 14  2  0  0  0  0
 11 15  1  0  0  0  0
 15 16  1  0  0  0  0
  7 17  1  0  0  0  0
  8 18  1  0  0  0  0
 18 19  1  0  0  0  0
 18 20  1  0  0  0  0
 18 21  1  0  0  0  0
  1 22  1  0  0  0  0
  2 23  1  0  0  0  0
  3 24  1  0  0  0  0
  4 25  1  0  0  0  0
  8 26  1  0  0  0  0
 10 27  1  0  0  0  0
 12 28  1  0  0  0  0
 13 29  1  0  0  0  0
 14 30  1  0  0  0  0
 16 31  1  0  0  0  0
 16 32  1  0  0  0  0
 16 33  1  0  0  0  0
 17 34  1  0  0  0  0
 17 35  1  0  0  0  0
 17 36  1  0  0  0  0
M  END
>  <Substance ID> (121)
121

>  <Mouse_Female_Canc> (121)
1

>  <SAL> (121)
1

>  <Rat_Male_Canc> (121)
1

>  <TD50_Rat> (121)
NP

>  <TD50_Mouse> (121)
NP

>  <Rat_Female_Canc> (121)
1

>  <Canc> (121)
1

>  <MolWeight> (121)
345.65

>  <Mouse_Male_Canc> (121)
1

>  <Mouse_Male_NTP> (121)
ND

>  <ChemName> (121)
Methoxychlor

>  <Rat_Male_NTP> (121)
ND

>  <Reference> (121)
NTP35

>  <Formula> (121)
C16H15Cl3O2

>  <SMILES> (121)
ClC(C(C1=CC=C(C=C1)OC)C2=CC=C(C=C2)OC)(Cl)Cl

>  <Rat_Female_NTP> (121)
ND

>  <CAS> (127)
72-43-5

>  <Mouse_Female_NTP> (121)
ND

>  <Synonyms> (121)
1,1,1-Trichloro-2,2-bis(p-anisyl)ethane; 1,1,1-trichloro-2,2-bis(p-methoxyphenyl)ethane; 1,1'-(2,2,2-Trichloroethylidene)-bis[4-methoxybenzene]; 1,1-bis(p-methoxyphenyl)-2,2,2-trichloroethane; 2,2,2-trichloro-1,1-bis(4-methoxyphenyl)ethane; 2,2-bis(p-anisyl)-1,1,1-trichloroethane; 2,2-bis(p-methoxyphenyl)-1,1,1-trichloroethane; 4,4-(2,2,2-trichloroethylidene)dianisole; p,p'-dimethoxydiphenyltrichloroethane; p,p'-dmdt; p,p'-methoxychlor; Bis(p-anisyl)-1,1,1-trichloroethane; Bis(p-methoxyphenyl)-1,1,1-trichloroethane; di(p-methoxyphenyl) trichloromethyl methane; dianisyltrichloroethane; Dimethoxydiphenyltrichloroethane; dimethoxy-ddt; dimethoxy-dt; Chemform; Chemform methoxychlor; DMDT; double-m ec; flo pro mcseed protectant; Maralate; Marlate; Maxie; methoxcide; methoxo; methoxychlor 2 ec; Methoxy DDT; Metox; mezox k; Moxie; oms 466.

$$$$
122


 26 26  0  0  0  0  0  0  0  0999 V2000
   37.1630  -70.0703    0.6465 C   0  0  0  0  0  0  0  0  0  0  0  0
   38.4717  -69.8360    0.5638 C   0  0  0  0  0  0  0  0  0  0  0  0
   38.0793  -67.6533   -0.3927 C   0  0  0  0  0  0  0  0  0  0  0  0
   36.6457  -67.9143   -0.3046 C   0  0  0  0  0  0  0  0  0  0  0  0
   38.9483  -68.5688    0.0177 C   0  0  0  0  0  0  0  0  0  0  0  0
   36.1915  -69.0653    0.1879 C   0  0  0  0  0  0  0  0  0  0  0  0
   34.7932  -69.3844    0.2949 O   0  0  0  0  0  0  0  0  0  0  0  0
   40.3110  -68.3199   -0.0749 N   0  3  0  0  0  0  0  0  0  0  0  0
   41.1785  -69.2344    0.3170 O   0  5  0  0  0  0  0  0  0  0  0  0
   40.6874  -67.2928   -0.5064 O   0  0  0  0  0  0  0  0  0  0  0  0
   33.6930  -68.3831   -0.1968 P   0  0  0  0  0  0  0  0  0  0  0  0
   34.0592  -66.9165   -0.9134 S   0  0  0  0  0  0  0  0  0  0  0  0
   32.7918  -68.2200    1.0040 O   0  0  0  0  0  0  0  0  0  0  0  0
   32.7983  -69.2067   -1.0965 O   0  0  0  0  0  0  0  0  0  0  0  0
   32.2124  -66.9040    1.0143 C   0  0  0  0  0  0  0  0  0  0  0  0
   32.6202  -70.5281   -0.5638 C   0  0  0  0  0  0  0  0  0  0  0  0
   36.8379  -70.9374    1.0239 H   0  0  0  0  0  0  0  0  0  0  0  0
   39.1255  -70.5258    0.8747 H   0  0  0  0  0  0  0  0  0  0  0  0
   38.4069  -66.7839   -0.7627 H   0  0  0  0  0  0  0  0  0  0  0  0
   35.9970  -67.2206   -0.6178 H   0  0  0  0  0  0  0  0  0  0  0  0
   31.6182  -66.8072    1.8127 H   0  0  0  0  0  0  0  0  0  0  0  0
   31.6755  -66.7691    0.1815 H   0  0  0  0  0  0  0  0  0  0  0  0
   32.9401  -66.2193    1.0559 H   0  0  0  0  0  0  0  0  0  0  0  0
   32.0270  -71.0559   -1.1716 H   0  0  0  0  0  0  0  0  0  0  0  0
   32.2007  -70.4691    0.3421 H   0  0  0  0  0  0  0  0  0  0  0  0
   33.5089  -70.9809   -0.4903 H   0  0  0  0  0  0  0  0  0  0  0  0
  8  9  1  0  0  0  0
  8 10  2  0  0  0  0
  1  2  2  0  0  0  0
  3  4  1  0  0  0  0
  1  6  1  0  0  0  0
  2  5  1  0  0  0  0
  5  3  2  0  0  0  0
  4  6  2  0  0  0  0
  6  7  1  0  0  0  0
  7 11  1  0  0  0  0
 11 12  2  0  0  0  0
 11 13  1  0  0  0  0
 11 14  1  0  0  0  0
 13 15  1  0  0  0  0
 14 16  1  0  0  0  0
  5  8  1  0  0  0  0
  1 17  1  0  0  0  0
  2 18  1  0  0  0  0
  3 19  1  0  0  0  0
  4 20  1  0  0  0  0
 15 21  1  0  0  0  0
 15 22  1  0  0  0  0
 15 23  1  0  0  0  0
 16 24  1  0  0  0  0
 16 25  1  0  0  0  0
 16 26  1  0  0  0  0
M  END
>  <Substance ID> (122)
122

>  <Mouse_Female_Canc> (122)
1

>  <SAL> (122)
3

>  <Rat_Male_Canc> (122)
1

>  <TD50_Rat> (122)
NP

>  <TD50_Mouse> (122)
NP

>  <Rat_Female_Canc> (122)
1

>  <Canc> (122)
1

>  <MolWeight> (122)
263.20

>  <Mouse_Male_Canc> (122)
1

>  <Mouse_Male_NTP> (122)
ND

>  <ChemName> (122)
Methyl Parathion

>  <Rat_Male_NTP> (122)
ND

>  <Reference> (122)
NTP157

>  <Formula> (122)
C8H10NO5PS

>  <SMILES> (122)
S=P(OC1=CC=C(C=C1)[N+](=O)[O-])(OC)OC

>  <Rat_Female_NTP> (122)
ND

>  <CAS> (122)
298-00-0

>  <Mouse_Female_NTP> (122)
ND

>  <Synonyms> (122)
O,O-dimethyl O-(p-nitrophenyl) thionophosphate; O,O-dimethyl O-p-nitrophenyl phosphorothioate; nitrox; nitrox 80; Penncap-M; Phosphorothioic acid O,O-dimethyl O-(4-nitrophenyl) ester; wofatox; O,O-dimethyl O-p-nitrophenyl thiophosphate; Metacide; Metafos; Metaphor; Metaphos; p-nitrophenyldimethylthionophosphate; Parathion-methyl; parathion methyl homolog; bay e-601; Dimethyl O-p-nitrophenyl thiophosphate; dimethyl p-nitrophenyl monothiophosphate; Dimethyl 4-nitrophenyl phosphorothionate; dimethyl p-nitrophenyl thionophosphate; dimethyl parathion; bladan m; Dalf; Dalif; E 601; folidol-80; Folidol-M; liquid; metron.

$$$$
123


 34 34  0  0  0  0  0  0  0  0999 V2000
   39.4652  -78.6007   -0.0064 C   0  0  0  0  0  0  0  0  0  0  0  0
   39.4502  -77.2830   -0.0073 C   0  0  0  0  0  0  0  0  0  0  0  0
   37.1077  -77.1342   -0.0048 C   0  0  0  0  0  0  0  0  0  0  0  0
   36.9819  -78.6028   -0.0045 C   0  0  0  0  0  0  0  0  0  0  0  0
   38.2709  -76.5103   -0.0042 C   0  0  0  0  0  0  0  0  0  0  0  0
   38.1055  -79.4127   -0.0031 C   0  0  0  0  0  0  0  0  0  0  0  0
   38.2885  -75.0784    0.0027 O   0  0  0  0  0  0  0  0  0  0  0  0
   35.5276  -79.0432   -0.0032 C   0  0  0  0  0  0  0  0  0  0  0  0
   38.0779  -81.0106    0.0019 N   0  0  0  0  0  0  0  0  0  0  0  0
   40.8748  -79.1621   -0.0089 C   0  0  0  0  0  0  0  0  0  0  0  0
   39.5636  -74.3924    0.0062 C   0  0  0  0  0  0  0  0  0  0  0  0
   39.2633  -81.8333    0.0045 C   0  0  0  0  0  0  0  0  0  0  0  0
   36.8849  -81.8334    0.0069 C   0  0  0  0  0  0  0  0  0  0  0  0
   39.5590  -73.1578    0.0179 O   0  0  0  0  0  0  0  0  0  0  0  0
   40.8116  -75.0469   -0.0023 N   0  0  0  0  0  0  0  0  0  0  0  0
   42.0364  -74.3043    0.0048 C   0  0  0  0  0  0  0  0  0  0  0  0
   40.3273  -76.8027   -0.0103 H   0  0  0  0  0  0  0  0  0  0  0  0
   36.2723  -76.5846   -0.0055 H   0  0  0  0  0  0  0  0  0  0  0  0
   35.4814  -80.0421   -0.0030 H   0  0  0  0  0  0  0  0  0  0  0  0
   35.0708  -78.6890   -0.8192 H   0  0  0  0  0  0  0  0  0  0  0  0
   35.0723  -78.6888    0.8136 H   0  0  0  0  0  0  0  0  0  0  0  0
   40.8362  -80.1613   -0.0081 H   0  0  0  0  0  0  0  0  0  0  0  0
   41.3610  -78.8472    0.8063 H   0  0  0  0  0  0  0  0  0  0  0  0
   41.3576  -78.8484   -0.8265 H   0  0  0  0  0  0  0  0  0  0  0  0
   39.0000  -82.7980    0.0076 H   0  0  0  0  0  0  0  0  0  0  0  0
   39.8062  -81.6339    0.8203 H   0  0  0  0  0  0  0  0  0  0  0  0
   39.8062  -81.6391   -0.8125 H   0  0  0  0  0  0  0  0  0  0  0  0
   37.1453  -82.7989    0.0094 H   0  0  0  0  0  0  0  0  0  0  0  0
   36.3408  -81.6375   -0.8090 H   0  0  0  0  0  0  0  0  0  0  0  0
   36.3442  -81.6324    0.8238 H   0  0  0  0  0  0  0  0  0  0  0  0
   40.8426  -76.0464   -0.0134 H   0  0  0  0  0  0  0  0  0  0  0  0
   42.8106  -74.9371   -0.0029 H   0  0  0  0  0  0  0  0  0  0  0  0
   42.0783  -73.7373    0.8275 H   0  0  0  0  0  0  0  0  0  0  0  0
   42.0767  -73.7192   -0.8052 H   0  0  0  0  0  0  0  0  0  0  0  0
  1  2  2  0  0  0  0
  3  4  1  0  0  0  0
  1  6  1  0  0  0  0
  2  5  1  0  0  0  0
  5  3  2  0  0  0  0
  4  6  2  0  0  0  0
  5  7  1  0  0  0  0
  4  8  1  0  0  0  0
  6  9  1  0  0  0  0
  1 10  1  0  0  0  0
  7 11  1  0  0  0  0
  9 12  1  0  0  0  0
  9 13  1  0  0  0  0
 11 14  2  0  0  0  0
 11 15  1  0  0  0  0
 15 16  1  0  0  0  0
  2 17  1  0  0  0  0
  3 18  1  0  0  0  0
  8 19  1  0  0  0  0
  8 20  1  0  0  0  0
  8 21  1  0  0  0  0
 10 22  1  0  0  0  0
 10 23  1  0  0  0  0
 10 24  1  0  0  0  0
 12 25  1  0  0  0  0
 12 26  1  0  0  0  0
 12 27  1  0  0  0  0
 13 28  1  0  0  0  0
 13 29  1  0  0  0  0
 13 30  1  0  0  0  0
 15 31  1  0  0  0  0
 16 32  1  0  0  0  0
 16 33  1  0  0  0  0
 16 34  1  0  0  0  0
M  END
>  <Substance ID> (123)
123

>  <Mouse_Female_Canc> (123)
1

>  <SAL> (123)
ND

>  <Rat_Male_Canc> (123)
1

>  <TD50_Rat> (123)
NP

>  <TD50_Mouse> (123)
NP

>  <Rat_Female_Canc> (123)
1

>  <Canc> (123)
1

>  <MolWeight> (123)
222.29

>  <Mouse_Male_Canc> (123)
1

>  <Mouse_Male_NTP> (123)
ND

>  <ChemName> (123)
Mexacarbate

>  <Rat_Male_NTP> (123)
ND

>  <Reference> (123)
NTP147

>  <Formula> (123)
C12H18N2O2

>  <SMILES> (123)
CC1=C(C(=CC(=C1)OC(=O)NC)C)N(C)C

>  <Rat_Female_NTP> (123)
ND

>  <CAS> (123)
315-18-4

>  <Mouse_Female_NTP> (123)
ND

>  <Synonyms> (123)
4-(dimethylamino)-3,5-dimethylphenol, methylcarbamate; 4-Dimethylamino-3,5-Dimethylphenol Methylcarbamate Ester; 4-(Dimethylamino)-3,5-dimethylphenyl methylcarbamate; 4-Dimethylamino-3,5-xylyl methylcarbamate; 4-Dimethylamino-3,5-xylyl N-methylcarbamate; Mexacarbamate; Mexacarbole; Zactran; Zectane; Zectran.

$$$$
124


 28 29  0  0  0  0  0  0  0  0999 V2000
   40.1625  -87.4777    0.0022 C   0  0  0  0  0  0  0  0  0  0  0  0
   40.2142  -86.0171   -0.0046 N   0  0  0  0  0  0  0  0  0  0  0  0
   36.4199  -88.0872   -0.0088 C   0  0  0  0  0  0  0  0  0  0  0  0
   36.3598  -89.4188   -0.0079 C   0  0  0  0  0  0  0  0  0  0  0  0
   37.5918  -90.2040   -0.0033 C   0  0  0  0  0  0  0  0  0  0  0  0
   37.7239  -87.4074   -0.0056 C   0  0  0  0  0  0  0  0  0  0  0  0
   38.8446  -88.1282   -0.0001 C   0  0  0  0  0  0  0  0  0  0  0  0
   38.7712  -89.5834    0.0026 C   0  0  0  0  0  0  0  0  0  0  0  0
   41.1691  -89.7261    0.0143 C   0  0  0  0  0  0  0  0  0  0  0  0
   41.2465  -88.2607    0.0105 C   0  0  0  0  0  0  0  0  0  0  0  0
   39.9974  -90.3532    0.0101 C   0  0  0  0  0  0  0  0  0  0  0  0
   41.3936  -85.0692    0.0147 C   0  0  0  0  0  0  0  0  0  0  0  0
   42.8468  -85.6445   -0.0280 C   0  0  0  0  0  0  0  0  0  0  0  0
   43.8373  -84.5639    0.0045 N   0  0  0  0  0  0  0  0  0  0  0  0
   39.3204  -85.5691   -0.0255 H   0  0  0  0  0  0  0  0  0  0  0  0
   35.5767  -87.5496   -0.0117 H   0  0  0  0  0  0  0  0  0  0  0  0
   35.4724  -89.8798   -0.0102 H   0  0  0  0  0  0  0  0  0  0  0  0
   37.5503  -91.2031   -0.0047 H   0  0  0  0  0  0  0  0  0  0  0  0
   37.7694  -86.4085   -0.0076 H   0  0  0  0  0  0  0  0  0  0  0  0
   42.0131  -90.2624    0.0203 H   0  0  0  0  0  0  0  0  0  0  0  0
   42.1485  -87.8291    0.0142 H   0  0  0  0  0  0  0  0  0  0  0  0
   39.9628  -91.3526    0.0121 H   0  0  0  0  0  0  0  0  0  0  0  0
   41.2959  -84.4679   -0.7784 H   0  0  0  0  0  0  0  0  0  0  0  0
   41.3192  -84.5300    0.8536 H   0  0  0  0  0  0  0  0  0  0  0  0
   42.9863  -86.2406    0.7628 H   0  0  0  0  0  0  0  0  0  0  0  0
   42.9654  -86.1724   -0.8690 H   0  0  0  0  0  0  0  0  0  0  0  0
   44.7577  -84.9538   -0.0236 H   0  0  0  0  0  0  0  0  0  0  0  0
   43.7259  -84.0340    0.8452 H   0  0  0  0  0  0  0  0  0  0  0  0
  1  2  1  0  0  0  0
  3  4  2  0  0  0  0
  3  6  1  0  0  0  0
  4  5  1  0  0  0  0
  5  8  2  0  0  0  0
  7  6  2  0  0  0  0
  7  8  1  0  0  0  0
  9 10  1  0  0  0  0
  7  1  1  0  0  0  0
  8 11  1  0  0  0  0
 11  9  2  0  0  0  0
 10  1  2  0  0  0  0
  2 12  1  0  0  0  0
 12 13  1  0  0  0  0
 13 14  1  0  0  0  0
  2 15  1  0  0  0  0
  3 16  1  0  0  0  0
  4 17  1  0  0  0  0
  5 18  1  0  0  0  0
  6 19  1  0  0  0  0
  9 20  1  0  0  0  0
 10 21  1  0  0  0  0
 11 22  1  0  0  0  0
 12 23  1  0  0  0  0
 12 24  1  0  0  0  0
 13 25  1  0  0  0  0
 13 26  1  0  0  0  0
 14 27  1  0  0  0  0
 14 28  1  0  0  0  0
M  END
>  <Substance ID> (124)
124

>  <Mouse_Female_Canc> (124)
1

>  <SAL> (124)
3

>  <Rat_Male_Canc> (124)
1

>  <TD50_Rat> (124)
NP

>  <TD50_Mouse> (124)
NP

>  <Rat_Female_Canc> (124)
1

>  <Canc> (124)
1

>  <MolWeight> (124)
186.26

>  <Mouse_Male_Canc> (124)
1

>  <Mouse_Male_NTP> (124)
ND

>  <ChemName> (124)
N-1-Naphthylethylenediamine Dihydrochloride

>  <Rat_Male_NTP> (124)
ND

>  <Reference> (124)
NTP168

>  <Formula> (124)
C12H14N2 

>  <SMILES> (124)
NCCNc1cccc2ccccc12

>  <Rat_Female_NTP> (124)
ND

>  <CAS> (124)
1465-25-4

>  <Mouse_Female_NTP> (124)
ND

>  <Synonyms> (124)
1-amino-2-(alpha-naphthylamino)ethane dihydrochloride; Marshall's reagent; N-1-naphthyl-1,2-ethanediamine dihydrochloride; N-alpha-naphthylethylenediamine dihydrochloride.

$$$$
125


 19 19  0  0  0  0  0  0  0  0999 V2000
    4.3243   -5.1277   -0.0008 C   0  0  0  0  0  0  0  0  0  0  0  0
    4.3547   -6.4588   -0.0006 C   0  0  0  0  0  0  0  0  0  0  0  0
    6.7754   -6.4688   -0.0002 C   0  0  0  0  0  0  0  0  0  0  0  0
    6.7461   -5.0084   -0.0002 C   0  0  0  0  0  0  0  0  0  0  0  0
    5.6388   -7.1607   -0.0002 C   0  0  0  0  0  0  0  0  0  0  0  0
    5.5772   -4.3640   -0.0003 C   0  0  0  0  0  0  0  0  0  0  0  0
    5.5312   -2.8952    0.0008 C   0  0  0  0  0  0  0  0  0  0  0  0
    7.9477   -4.3010    0.0003 N   0  0  0  0  0  0  0  0  0  0  0  0
    4.4393   -2.3192    0.0017 O   0  0  0  0  0  0  0  0  0  0  0  0
    6.7039   -2.1493    0.0018 O   0  0  0  0  0  0  0  0  0  0  0  0
    5.6721   -8.5546    0.0001 N   0  3  0  0  0  0  0  0  0  0  0  0
    4.5413   -9.2397    0.0000 O   0  5  0  0  0  0  0  0  0  0  0  0
    6.7033   -9.1180    0.0002 O   0  0  0  0  0  0  0  0  0  0  0  0
    3.4469   -4.6480   -0.0012 H   0  0  0  0  0  0  0  0  0  0  0  0
    3.5004   -6.9786   -0.0007 H   0  0  0  0  0  0  0  0  0  0  0  0
    7.6521   -6.9499   -0.0002 H   0  0  0  0  0  0  0  0  0  0  0  0
    7.9392   -3.3010    0.0003 H   0  0  0  0  0  0  0  0  0  0  0  0
    8.8180   -4.7936    0.0006 H   0  0  0  0  0  0  0  0  0  0  0  0
    6.4797   -1.1748    0.0024 H   0  0  0  0  0  0  0  0  0  0  0  0
  1  2  2  0  0  0  0
  3  4  1  0  0  0  0
  1  6  1  0  0  0  0
  2  5  1  0  0  0  0
  5  3  2  0  0  0  0
  4  6  2  0  0  0  0
  6  7  1  0  0  0  0
  4  8  1  0  0  0  0
  7  9  2  0  0  0  0
  7 10  1  0  0  0  0
 11 12  1  0  0  0  0
 11 13  2  0  0  0  0
  5 11  1  0  0  0  0
  1 14  1  0  0  0  0
  2 15  1  0  0  0  0
  3 16  1  0  0  0  0
  8 17  1  0  0  0  0
  8 18  1  0  0  0  0
 10 19  1  0  0  0  0
M  END
>  <Substance ID> (125)
125

>  <Mouse_Female_Canc> (125)
1

>  <SAL> (125)
3

>  <Rat_Male_Canc> (125)
1

>  <TD50_Rat> (125)
NP

>  <TD50_Mouse> (125)
NP

>  <Rat_Female_Canc> (125)
1

>  <Canc> (125)
1

>  <MolWeight> (125)
182.14

>  <Mouse_Male_Canc> (125)
1

>  <Mouse_Male_NTP> (125)
ND

>  <ChemName> (125)
4-Nitroanthranilic Acid

>  <Rat_Male_NTP> (125)
ND

>  <Reference> (125)
NTP109

>  <Formula> (125)
C7H6N2O4

>  <SMILES> (125)
O=[N+](C1=CC(=C(C=C1)C(=O)O)N)[O-]

>  <Rat_Female_NTP> (125)
ND

>  <CAS> (125)
619-17-0

>  <Mouse_Female_NTP> (125)
ND

>  <Synonyms> (125)
2-amino-4-nitrobenzoic acid; 4-nitro-2-aminobenzoic acid.

$$$$
126


 20 21  0  0  0  0  0  0  0  0999 V2000
    5.6151  -15.1167    0.0003 C   0  0  0  0  0  0  0  0  0  0  0  0
    4.3443  -15.8827   -0.0018 C   0  0  0  0  0  0  0  0  0  0  0  0
    6.7757  -15.7735    0.0015 C   0  0  0  0  0  0  0  0  0  0  0  0
    6.7990  -17.2383    0.0012 C   0  0  0  0  0  0  0  0  0  0  0  0
    5.6578  -17.9229    0.0014 C   0  0  0  0  0  0  0  0  0  0  0  0
    4.3763  -17.2145    0.0001 C   0  0  0  0  0  0  0  0  0  0  0  0
    3.1244  -17.9734    0.0006 C   0  0  0  0  0  0  0  0  0  0  0  0
    1.9532  -17.3388   -0.0005 C   0  0  0  0  0  0  0  0  0  0  0  0
    1.9133  -15.8835   -0.0026 C   0  0  0  0  0  0  0  0  0  0  0  0
    3.0476  -15.1942   -0.0032 C   0  0  0  0  0  0  0  0  0  0  0  0
    5.6329  -13.7005    0.0006 N   0  3  0  0  0  0  0  0  0  0  0  0
    6.7881  -13.0706   -0.0020 O   0  5  0  0  0  0  0  0  0  0  0  0
    4.6427  -13.0686    0.0019 O   0  0  0  0  0  0  0  0  0  0  0  0
    7.6355  -15.2630    0.0027 H   0  0  0  0  0  0  0  0  0  0  0  0
    7.6730  -17.7241    0.0008 H   0  0  0  0  0  0  0  0  0  0  0  0
    5.6755  -18.9228    0.0024 H   0  0  0  0  0  0  0  0  0  0  0  0
    3.1485  -18.9732    0.0019 H   0  0  0  0  0  0  0  0  0  0  0  0
    1.1011  -17.8621    0.0001 H   0  0  0  0  0  0  0  0  0  0  0  0
    1.0351  -15.4053   -0.0036 H   0  0  0  0  0  0  0  0  0  0  0  0
    3.0187  -14.1946   -0.0046 H   0  0  0  0  0  0  0  0  0  0  0  0
 10  2  1  0  0  0  0
  2  6  2  0  0  0  0
  2  1  1  0  0  0  0
  1  3  2  0  0  0  0
  3  4  1  0  0  0  0
  4  5  2  0  0  0  0
  5  6  1  0  0  0  0
  6  7  1  0  0  0  0
  7  8  2  0  0  0  0
  8  9  1  0  0  0  0
  9 10  2  0  0  0  0
 11 12  1  0  0  0  0
 11 13  2  0  0  0  0
  1 11  1  0  0  0  0
  3 14  1  0  0  0  0
  4 15  1  0  0  0  0
  5 16  1  0  0  0  0
  7 17  1  0  0  0  0
  8 18  1  0  0  0  0
  9 19  1  0  0  0  0
 10 20  1  0  0  0  0
M  END
>  <Substance ID> (126)
126

>  <Mouse_Female_Canc> (126)
1

>  <SAL> (126)
3

>  <Rat_Male_Canc> (126)
1

>  <TD50_Rat> (126)
NP

>  <TD50_Mouse> (126)
NP

>  <Rat_Female_Canc> (126)
1

>  <Canc> (126)
1

>  <MolWeight> (126)
173.17

>  <Mouse_Male_Canc> (126)
1

>  <Mouse_Male_NTP> (126)
ND

>  <ChemName> (126)
1-Nitronaphthalene

>  <Rat_Male_NTP> (126)
ND

>  <Reference> (126)
NTP64

>  <Formula> (126)
C10H7NO2

>  <SMILES> (126)
O=[N+](C1=C2C(=CC=C1)C=CC=C2)[O-]

>  <Rat_Female_NTP> (126)
ND

>  <CAS> (126)
86-57-7

>  <Mouse_Female_NTP> (126)
ND

>  <Synonyms> (126)
alpha-nitronaphthalene.

$$$$
127


 18 18  0  0  0  0  0  0  0  0999 V2000
    2.2805  -23.6469    0.0004 C   0  0  0  0  0  0  0  0  0  0  0  0
    2.2800  -24.9793   -0.0009 C   0  0  0  0  0  0  0  0  0  0  0  0
    4.7014  -25.0427    0.0001 C   0  0  0  0  0  0  0  0  0  0  0  0
    4.7010  -23.5796    0.0005 C   0  0  0  0  0  0  0  0  0  0  0  0
    3.5490  -25.7087    0.0005 C   0  0  0  0  0  0  0  0  0  0  0  0
    3.5475  -22.9142    0.0006 C   0  0  0  0  0  0  0  0  0  0  0  0
    3.5463  -21.5189    0.0000 N   0  0  0  0  0  0  0  0  0  0  0  0
    5.9099  -22.8808    0.0006 N   0  0  0  0  0  0  0  0  0  0  0  0
    3.5499  -27.1041    0.0007 N   0  3  0  0  0  0  0  0  0  0  0  0
    2.4020  -27.7670    0.0000 O   0  5  0  0  0  0  0  0  0  0  0  0
    4.5678  -27.6920    0.0004 O   0  0  0  0  0  0  0  0  0  0  0  0
    1.4144  -23.1470    0.0012 H   0  0  0  0  0  0  0  0  0  0  0  0
    1.4143  -25.4799   -0.0029 H   0  0  0  0  0  0  0  0  0  0  0  0
    5.5676  -25.5424   -0.0006 H   0  0  0  0  0  0  0  0  0  0  0  0
    4.4118  -21.0182    0.0002 H   0  0  0  0  0  0  0  0  0  0  0  0
    2.6798  -21.0197   -0.0006 H   0  0  0  0  0  0  0  0  0  0  0  0
    5.9094  -21.8808    0.0009 H   0  0  0  0  0  0  0  0  0  0  0  0
    6.7761  -23.3803    0.0003 H   0  0  0  0  0  0  0  0  0  0  0  0
  1  2  2  0  0  0  0
  3  4  1  0  0  0  0
  1  6  1  0  0  0  0
  2  5  1  0  0  0  0
  5  3  2  0  0  0  0
  4  6  2  0  0  0  0
  6  7  1  0  0  0  0
  4  8  1  0  0  0  0
  9 10  1  0  0  0  0
  9 11  2  0  0  0  0
  5  9  1  0  0  0  0
  1 12  1  0  0  0  0
  2 13  1  0  0  0  0
  3 14  1  0  0  0  0
  7 15  1  0  0  0  0
  7 16  1  0  0  0  0
  8 17  1  0  0  0  0
  8 18  1  0  0  0  0
M  END
>  <Substance ID> (127)
127

>  <Mouse_Female_Canc> (127)
1

>  <SAL> (127)
3

>  <Rat_Male_Canc> (127)
1

>  <TD50_Rat> (127)
NP

>  <TD50_Mouse> (127)
NP

>  <Rat_Female_Canc> (127)
1

>  <Canc> (127)
1

>  <MolWeight> (127)
153.14

>  <Mouse_Male_Canc> (127)
1

>  <Mouse_Male_NTP> (127)
ND

>  <ChemName> (127)
4-Nitro-orto-Phenylenediamine

>  <Rat_Male_NTP> (127)
ND

>  <Reference> (127)
NTP180

>  <Formula> (127)
C6H7N3O2

>  <SMILES> (127)
O=[N+](C1=CC(=C(C=C1)N)N)[O-]

>  <Rat_Female_NTP> (127)
ND

>  <CAS> (127)
99-56-9

>  <Mouse_Female_NTP> (127)
ND

>  <Synonyms> (127)
1,2-Diamino-4-nitrobenzene; 2-Amino-4-nitroaniline; 3,4-diaminonitrobenzene; 4-n-o-pda; 4-NDB; 4-nitro-1,2-Benzenediamine; 4-nitro-1,2-diaminobenzene; 4-nitro-1,2-phenylenediamine; 4-NO; 4-NOP; 4-NOPD; C.I. 76020.

$$$$
128


 13 12  0  0  0  0  0  0  0  0999 V2000
    3.1470  -33.4244    0.0000 C   0  0  0  0  0  0  0  0  0  0  0  0
    2.9123  -32.2102   -0.0004 O   0  0  0  0  0  0  0  0  0  0  0  0
    2.0884  -34.3309    0.0002 O   0  0  0  0  0  0  0  0  0  0  0  0
    4.5636  -33.9158   -0.0001 C   0  0  0  0  0  0  0  0  0  0  0  0
    2.4405  -35.2561    0.0005 H   0  0  0  0  0  0  0  0  0  0  0  0
    5.5166  -32.7039    0.0002 C   0  0  0  0  0  0  0  0  0  0  0  0
    6.8772  -33.1514    0.0002 N   0  3  0  0  0  0  0  0  0  0  0  0
    7.1542  -34.4492   -0.0008 O   0  5  0  0  0  0  0  0  0  0  0  0
    7.7541  -32.3668    0.0009 O   0  0  0  0  0  0  0  0  0  0  0  0
    4.7260  -34.4698    0.8164 H   0  0  0  0  0  0  0  0  0  0  0  0
    4.7260  -34.4693   -0.8169 H   0  0  0  0  0  0  0  0  0  0  0  0
    5.3498  -32.1512   -0.8163 H   0  0  0  0  0  0  0  0  0  0  0  0
    5.3496  -32.1516    0.8170 H   0  0  0  0  0  0  0  0  0  0  0  0
  1  2  2  0  0  0  0
  1  3  1  0  0  0  0
  1  4  1  0  0  0  0
  3  5  1  0  0  0  0
  4  6  1  0  0  0  0
  6  7  1  0  0  0  0
  7  8  1  0  0  0  0
  7  9  2  0  0  0  0
  4 10  1  0  0  0  0
  4 11  1  0  0  0  0
  6 12  1  0  0  0  0
  6 13  1  0  0  0  0
M  END
>  <Substance ID> (128)
128

>  <Mouse_Female_Canc> (128)
1

>  <SAL> (128)
3

>  <Rat_Male_Canc> (128)
2

>  <TD50_Rat> (128)
NP

>  <TD50_Mouse> (128)
NP

>  <Rat_Female_Canc> (128)
1

>  <Canc> (128)
2

>  <MolWeight> (128)
119.08

>  <Mouse_Male_Canc> (128)
1

>  <Mouse_Male_NTP> (128)
ND

>  <ChemName> (128)
3-Nitropropionic Acid

>  <Rat_Male_NTP> (128)
ND

>  <Reference> (128)
NTP52

>  <Formula> (128)
C3H5NO4

>  <SMILES> (128)
OC(=O)CC[N+](=O)[O-]

>  <Rat_Female_NTP> (128)
ND

>  <CAS> (128)
504-88-1

>  <Mouse_Female_NTP> (128)
ND

>  <Synonyms> (128)
beta-nitropropionic acid; BNP; bovinocidin; hiptagenic acid.

$$$$
129


 14 14  0  0  0  0  0  0  0  0999 V2000
    3.9502  -42.6126   -0.0009 C   0  0  0  0  0  0  0  0  0  0  0  0
    3.9636  -43.9411   -0.0020 C   0  0  0  0  0  0  0  0  0  0  0  0
    6.3775  -43.9931   -0.0009 C   0  0  0  0  0  0  0  0  0  0  0  0
    6.3905  -42.5370    0.0009 C   0  0  0  0  0  0  0  0  0  0  0  0
    5.2293  -44.6619   -0.0011 C   0  0  0  0  0  0  0  0  0  0  0  0
    5.2324  -41.8565    0.0008 C   0  0  0  0  0  0  0  0  0  0  0  0
    7.9367  -41.7458    0.0035 Cl  0  0  0  0  0  0  0  0  0  0  0  0
    7.8743  -44.8527   -0.0006 Cl  0  0  0  0  0  0  0  0  0  0  0  0
    5.2402  -46.3885   -0.0004 Cl  0  0  0  0  0  0  0  0  0  0  0  0
    2.4743  -44.8112   -0.0011 Cl  0  0  0  0  0  0  0  0  0  0  0  0
    2.4175  -41.7988    0.0005 Cl  0  0  0  0  0  0  0  0  0  0  0  0
    5.2082  -40.4385    0.0012 N   0  3  0  0  0  0  0  0  0  0  0  0
    6.3146  -39.7351   -0.0026 O   0  5  0  0  0  0  0  0  0  0  0  0
    4.1861  -39.8665    0.0025 O   0  0  0  0  0  0  0  0  0  0  0  0
  1  2  2  0  0  0  0
  3  4  1  0  0  0  0
  1  6  1  0  0  0  0
  2  5  1  0  0  0  0
  5  3  2  0  0  0  0
  4  6  2  0  0  0  0
  4  7  1  0  0  0  0
  3  8  1  0  0  0  0
  5  9  1  0  0  0  0
  2 10  1  0  0  0  0
  1 11  1  0  0  0  0
 12 13  1  0  0  0  0
 12 14  2  0  0  0  0
  6 12  1  0  0  0  0
M  END
>  <Substance ID> (129)
129

>  <Mouse_Female_Canc> (129)
1

>  <SAL> (129)
1

>  <Rat_Male_Canc> (129)
1

>  <TD50_Rat> (129)
NP

>  <TD50_Mouse> (129)
NP

>  <Rat_Female_Canc> (129)
1

>  <Canc> (129)
1

>  <MolWeight> (129)
295.34

>  <Mouse_Male_Canc> (129)
1

>  <Mouse_Male_NTP> (129)
NE

>  <ChemName> (129)
Pentachloronitrobenzene

>  <Rat_Male_NTP> (129)
ND

>  <Reference> (129)
NTP61 & NTP325

>  <Formula> (129)
C6Cl5NO2

>  <SMILES> (129)
ClC1=C(C(=C(C(=C1Cl)Cl)Cl)Cl)[N+](=O)[O-]

>  <Rat_Female_NTP> (129)
ND

>  <CAS> (129)
82-68-8

>  <Mouse_Female_NTP> (129)
NE

>  <Synonyms> (129)
Avical; Avicol; Quintozine; saniclor 30; SA Terraclor; SA Terraclor 2E; Terrachlor; Terraclor; Terrafun; Tilcarex; Tri PCNB; tritisan; batrilex; Botrilex; brassicol; Earthcide; Eorthcicle; fartox; fomac 2; Fortox; fungiclor; gc 3944-3-4; Kobu; Kobutol; KP 2; Marison Forte; nitropentachlorobenzene; olpisan; PCNB; Pentagen; Pkhnb; quintobenzene; quintocene; quintozen.

$$$$
130


 30 30  0  0  0  0  0  0  0  0999 V2000
   11.1437  -46.0482   -0.0028 N   0  0  0  0  0  0  0  0  0  0  0  0
    9.8522  -46.7149    0.0033 C   0  0  0  0  0  0  0  0  0  0  0  0
    8.6778  -45.8997    0.0087 N   0  0  0  0  0  0  0  0  0  0  0  0
    7.4317  -46.6891    0.0107 C   0  0  0  0  0  0  0  0  0  0  0  0
    6.2857  -45.6565    0.0121 C   0  0  0  0  0  0  0  0  0  0  0  0
    4.9065  -46.2643    0.0057 C   0  0  0  0  0  0  0  0  0  0  0  0
    2.3062  -47.3069   -0.0100 C   0  0  0  0  0  0  0  0  0  0  0  0
    3.3553  -48.1295   -0.0016 C   0  0  0  0  0  0  0  0  0  0  0  0
    3.7484  -45.3659   -0.0030 C   0  0  0  0  0  0  0  0  0  0  0  0
    4.7227  -47.5848    0.0063 C   0  0  0  0  0  0  0  0  0  0  0  0
    2.5127  -45.8593   -0.0107 C   0  0  0  0  0  0  0  0  0  0  0  0
   12.2975  -46.9260   -0.0060 C   0  0  0  0  0  0  0  0  0  0  0  0
   13.6082  -46.3499   -0.0091 N   0  0  0  0  0  0  0  0  0  0  0  0
    9.7447  -47.9808    0.0033 N   0  0  0  0  0  0  0  0  0  0  0  0
   12.1773  -48.1903   -0.0057 N   0  0  0  0  0  0  0  0  0  0  0  0
   11.2305  -45.0520   -0.0047 H   0  0  0  0  0  0  0  0  0  0  0  0
    8.6988  -44.8999    0.0108 H   0  0  0  0  0  0  0  0  0  0  0  0
    7.3818  -47.2644   -0.8057 H   0  0  0  0  0  0  0  0  0  0  0  0
    7.3843  -47.2640    0.8276 H   0  0  0  0  0  0  0  0  0  0  0  0
    6.3749  -45.0903    0.8315 H   0  0  0  0  0  0  0  0  0  0  0  0
    6.3794  -45.0831   -0.8017 H   0  0  0  0  0  0  0  0  0  0  0  0
    1.3783  -47.6797   -0.0157 H   0  0  0  0  0  0  0  0  0  0  0  0
    3.2129  -49.1193   -0.0007 H   0  0  0  0  0  0  0  0  0  0  0  0
    3.8878  -44.3757   -0.0031 H   0  0  0  0  0  0  0  0  0  0  0  0
    5.5096  -48.2018    0.0122 H   0  0  0  0  0  0  0  0  0  0  0  0
    1.7266  -45.2413   -0.0169 H   0  0  0  0  0  0  0  0  0  0  0  0
   14.4144  -46.9415   -0.0113 H   0  0  0  0  0  0  0  0  0  0  0  0
   13.7175  -45.3559   -0.0090 H   0  0  0  0  0  0  0  0  0  0  0  0
    8.8395  -48.4057    0.0076 H   0  0  0  0  0  0  0  0  0  0  0  0
   12.9920  -48.7700   -0.0080 H   0  0  0  0  0  0  0  0  0  0  0  0
  1  2  1  0  0  0  0
  2  3  1  0  0  0  0
  3  4  1  0  0  0  0
  5  4  1  0  0  0  0
  5  6  1  0  0  0  0
  7  8  2  0  0  0  0
  6  9  1  0  0  0  0
  7 11  1  0  0  0  0
  8 10  1  0  0  0  0
 10  6  2  0  0  0  0
  9 11  2  0  0  0  0
  1 12  1  0  0  0  0
 12 13  1  0  0  0  0
  2 14  2  0  0  0  0
 12 15  2  0  0  0  0
  1 16  1  0  0  0  0
  3 17  1  0  0  0  0
  4 18  1  0  0  0  0
  4 19  1  0  0  0  0
  5 20  1  0  0  0  0
  5 21  1  0  0  0  0
  7 22  1  0  0  0  0
  8 23  1  0  0  0  0
  9 24  1  0  0  0  0
 10 25  1  0  0  0  0
 11 26  1  0  0  0  0
 13 27  1  0  0  0  0
 13 28  1  0  0  0  0
 14 29  1  0  0  0  0
 15 30  1  0  0  0  0
M  END
>  <Substance ID> (130)
130

>  <Mouse_Female_Canc> (130)
1

>  <SAL> (130)
1

>  <Rat_Male_Canc> (130)
1

>  <TD50_Rat> (130)
NP

>  <TD50_Mouse> (130)
NP

>  <Rat_Female_Canc> (130)
1

>  <Canc> (130)
1

>  <MolWeight> (130)
205.26

>  <Mouse_Male_Canc> (130)
1

>  <Mouse_Male_NTP> (130)
ND

>  <ChemName> (130)
Phenformin Hydrochloride

>  <Rat_Male_NTP> (130)
ND

>  <Reference> (130)
NTP7

>  <Formula> (130)
C10H15N5 

>  <SMILES> (130)
NC(=N)NC(=N)NCCc1ccccc1

>  <Rat_Female_NTP> (130)
ND

>  <CAS> (130)
834-28-6

>  <Mouse_Female_NTP> (130)
ND

>  <Synonyms> (130)
1-phenethylbiguanide hydrochloride; 1-phenethylbiguanide monohydrochloride; Dipar; DBI-TD; meltrol; N'-beta-phenethylbiguanide hydrochloride; N-beta-phenylethyl biguanide hydrochloride; N(sup 1)-beta-phenethylbiguanide hydrochloride; phenethylbiguanide hydrochloride; phenoformine hydrochloride.

$$$$
131


 16 16  0  0  0  0  0  0  0  0999 V2000
    4.4026  -59.2243   -0.0008 C   0  0  0  0  0  0  0  0  0  0  0  0
    4.4032  -60.5560   -0.0010 C   0  0  0  0  0  0  0  0  0  0  0  0
    6.8250  -60.6202    0.0007 C   0  0  0  0  0  0  0  0  0  0  0  0
    6.8251  -59.1564    0.0009 C   0  0  0  0  0  0  0  0  0  0  0  0
    5.6717  -61.2866   -0.0001 C   0  0  0  0  0  0  0  0  0  0  0  0
    5.6713  -58.4911    0.0005 C   0  0  0  0  0  0  0  0  0  0  0  0
    5.6708  -57.0952    0.0010 N   0  0  0  0  0  0  0  0  0  0  0  0
    5.6724  -62.6820   -0.0004 N   0  0  0  0  0  0  0  0  0  0  0  0
    3.5363  -58.7247   -0.0015 H   0  0  0  0  0  0  0  0  0  0  0  0
    3.5375  -61.0567   -0.0017 H   0  0  0  0  0  0  0  0  0  0  0  0
    7.6912  -61.1200    0.0010 H   0  0  0  0  0  0  0  0  0  0  0  0
    7.6910  -58.6561    0.0015 H   0  0  0  0  0  0  0  0  0  0  0  0
    6.5367  -56.5950    0.0019 H   0  0  0  0  0  0  0  0  0  0  0  0
    4.8047  -56.5955    0.0006 H   0  0  0  0  0  0  0  0  0  0  0  0
    6.5386  -63.1816    0.0002 H   0  0  0  0  0  0  0  0  0  0  0  0
    4.8066  -63.1824   -0.0012 H   0  0  0  0  0  0  0  0  0  0  0  0
  1  2  2  0  0  0  0
  3  4  1  0  0  0  0
  1  6  1  0  0  0  0
  2  5  1  0  0  0  0
  5  3  2  0  0  0  0
  4  6  2  0  0  0  0
  6  7  1  0  0  0  0
  5  8  1  0  0  0  0
  1  9  1  0  0  0  0
  2 10  1  0  0  0  0
  3 11  1  0  0  0  0
  4 12  1  0  0  0  0
  7 13  1  0  0  0  0
  7 14  1  0  0  0  0
  8 15  1  0  0  0  0
  8 16  1  0  0  0  0
M  END
>  <Substance ID> (131)
131

>  <Mouse_Female_Canc> (131)
1

>  <SAL> (131)
3

>  <Rat_Male_Canc> (131)
1

>  <TD50_Rat> (131)
NP

>  <TD50_Mouse> (131)
NP

>  <Rat_Female_Canc> (131)
1

>  <Canc> (131)
1

>  <MolWeight> (131)
108.14

>  <Mouse_Male_Canc> (131)
1

>  <Mouse_Male_NTP> (131)
ND

>  <ChemName> (131)
p-Phenylenediamine Dihydrochloride

>  <Rat_Male_NTP> (131)
ND

>  <Reference> (131)
NTP174

>  <Formula> (131)
C6H8N2 

>  <SMILES> (131)
Nc1ccc(N)cc1

>  <Rat_Female_NTP> (131)
ND

>  <CAS> (131)
624-18-0

>  <Mouse_Female_NTP> (131)
ND

>  <Synonyms> (131)
1,4-Benzenediamine dihydrochloride; 1,4-Diaminobenzene dihydrochloride; 1,4-Phenylenediamine Dihydrochloride; p-Amimoaniline dihydrochloride; 4-Aminoaniline dihydrochloride; p-benzenediamine dihydrochloride; p-Diaminobenzene dihydrochloride; p-pda HCl; p-pd HCl; p-phenylenediamine hydrochloride; C.I. 76061; C.I. oxidation base 10a; durafur black rc; fourrine 64; fourrine ds; oxidation base 10a; pelagol cd; pelagol grey cd.

$$$$
132


 23 24  0  0  0  0  0  0  0  0999 V2000
    4.2270  -69.6987   -0.0014 C   0  0  0  0  0  0  0  0  0  0  0  0
    4.6251  -71.1669   -0.0053 C   0  0  0  0  0  0  0  0  0  0  0  0
    6.0884  -70.9337    0.0012 C   0  0  0  0  0  0  0  0  0  0  0  0
    6.3528  -69.5768    0.0029 N   0  0  0  0  0  0  0  0  0  0  0  0
    5.2182  -68.8891    0.0028 N   0  0  0  0  0  0  0  0  0  0  0  0
    2.7984  -69.2444   -0.0027 C   0  0  0  0  0  0  0  0  0  0  0  0
    6.9329  -71.8366    0.0047 O   0  0  0  0  0  0  0  0  0  0  0  0
    7.6299  -68.9807    0.0023 C   0  0  0  0  0  0  0  0  0  0  0  0
    8.7348  -69.7272   -0.0011 C   0  0  0  0  0  0  0  0  0  0  0  0
   10.1546  -67.7694   -0.0025 C   0  0  0  0  0  0  0  0  0  0  0  0
    8.9447  -66.9436    0.0015 C   0  0  0  0  0  0  0  0  0  0  0  0
   10.0530  -69.0966   -0.0035 C   0  0  0  0  0  0  0  0  0  0  0  0
    7.7436  -67.5200    0.0039 C   0  0  0  0  0  0  0  0  0  0  0  0
    4.3086  -71.6545    0.8083 H   0  0  0  0  0  0  0  0  0  0  0  0
    4.3149  -71.6485   -0.8249 H   0  0  0  0  0  0  0  0  0  0  0  0
    2.7660  -68.2449    0.0005 H   0  0  0  0  0  0  0  0  0  0  0  0
    2.3359  -69.5949    0.8117 H   0  0  0  0  0  0  0  0  0  0  0  0
    2.3390  -69.5897   -0.8211 H   0  0  0  0  0  0  0  0  0  0  0  0
    8.6609  -70.7244   -0.0019 H   0  0  0  0  0  0  0  0  0  0  0  0
   11.0560  -67.3365   -0.0045 H   0  0  0  0  0  0  0  0  0  0  0  0
    9.0203  -65.9465    0.0024 H   0  0  0  0  0  0  0  0  0  0  0  0
   10.8781  -69.6616   -0.0058 H   0  0  0  0  0  0  0  0  0  0  0  0
    6.9186  -66.9550    0.0067 H   0  0  0  0  0  0  0  0  0  0  0  0
  1  2  1  0  0  0  0
  3  4  1  0  0  0  0
  4  5  1  0  0  0  0
  5  1  2  0  0  0  0
  2  3  1  0  0  0  0
  1  6  1  0  0  0  0
  3  7  2  0  0  0  0
  4  8  1  0  0  0  0
  8  9  2  0  0  0  0
 10 11  1  0  0  0  0
  8 13  1  0  0  0  0
  9 12  1  0  0  0  0
 12 10  2  0  0  0  0
 11 13  2  0  0  0  0
  2 14  1  0  0  0  0
  2 15  1  0  0  0  0
  6 16  1  0  0  0  0
  6 17  1  0  0  0  0
  6 18  1  0  0  0  0
  9 19  1  0  0  0  0
 10 20  1  0  0  0  0
 11 21  1  0  0  0  0
 12 22  1  0  0  0  0
 13 23  1  0  0  0  0
M  END
>  <Substance ID> (132)
132

>  <Mouse_Female_Canc> (132)
1

>  <SAL> (132)
1

>  <Rat_Male_Canc> (132)
1

>  <TD50_Rat> (132)
NP

>  <TD50_Mouse> (132)
NP

>  <Rat_Female_Canc> (132)
1

>  <Canc> (132)
1

>  <MolWeight> (132)
174.20

>  <Mouse_Male_Canc> (132)
1

>  <Mouse_Male_NTP> (132)
ND

>  <ChemName> (132)
1-Phenyl-3-Methyl-5-Pyrazolone 

>  <Rat_Male_NTP> (132)
ND

>  <Reference> (132)
NTP141

>  <Formula> (132)
C10H10N2O

>  <SMILES> (132)
O=C1N(C2=CC=CC=C2)N=C(C1)C

>  <Rat_Female_NTP> (132)
ND

>  <CAS> (132)
89-25-8

>  <Mouse_Female_NTP> (132)
ND

>  <Synonyms> (132)
1-phenyl-3-methylpyrazolone-5; 2,4-dihydro-5-methyl-2-phenyl-3H-pyrazol-3-one; 3-methyl-1-phenyl-2-pyrazolin-5-one; 3-methyl-1-phenyl-5-pyrazolone; C.I. developer 1; developer z; norphenazone.

$$$$
133


 26 27  0  0  0  0  0  0  0  0999 V2000
    5.3008  -80.4287    0.0546 C   0  0  0  0  0  0  0  0  0  0  0  0
    6.5565  -79.9909    0.0193 C   0  0  0  0  0  0  0  0  0  0  0  0
    5.8308  -77.6860   -0.0581 C   0  0  0  0  0  0  0  0  0  0  0  0
    4.4471  -78.1717   -0.0185 C   0  0  0  0  0  0  0  0  0  0  0  0
    6.8554  -78.5406   -0.0388 C   0  0  0  0  0  0  0  0  0  0  0  0
    4.1969  -79.4776    0.0366 C   0  0  0  0  0  0  0  0  0  0  0  0
    8.1943  -77.9723   -0.0712 N   0  0  0  0  0  0  0  0  0  0  0  0
    9.4519  -78.6975   -0.0262 C   0  0  0  0  0  0  0  0  0  0  0  0
    9.5509  -80.0277    0.0350 C   0  0  0  0  0  0  0  0  0  0  0  0
   11.9686  -79.9557    0.0689 C   0  0  0  0  0  0  0  0  0  0  0  0
   11.8795  -78.4995    0.0017 C   0  0  0  0  0  0  0  0  0  0  0  0
   10.8564  -80.6848    0.0835 C   0  0  0  0  0  0  0  0  0  0  0  0
   10.6886  -77.9037   -0.0445 C   0  0  0  0  0  0  0  0  0  0  0  0
    2.8800  -79.9377    0.0776 N   0  0  0  0  0  0  0  0  0  0  0  0
    8.2554  -76.9803   -0.1215 H   0  0  0  0  0  0  0  0  0  0  0  0
    5.1144  -81.4104    0.0935 H   0  0  0  0  0  0  0  0  0  0  0  0
    7.3090  -80.6494    0.0322 H   0  0  0  0  0  0  0  0  0  0  0  0
    6.0083  -76.7028   -0.1000 H   0  0  0  0  0  0  0  0  0  0  0  0
    3.6893  -77.5193   -0.0331 H   0  0  0  0  0  0  0  0  0  0  0  0
    8.7194  -80.5831    0.0480 H   0  0  0  0  0  0  0  0  0  0  0  0
   12.8624  -80.4028    0.1038 H   0  0  0  0  0  0  0  0  0  0  0  0
   12.7139  -77.9485   -0.0097 H   0  0  0  0  0  0  0  0  0  0  0  0
   10.9129  -81.6823    0.1276 H   0  0  0  0  0  0  0  0  0  0  0  0
   10.6358  -76.9062   -0.0920 H   0  0  0  0  0  0  0  0  0  0  0  0
    2.1220  -79.2856    0.0652 H   0  0  0  0  0  0  0  0  0  0  0  0
    2.6944  -80.9194    0.1194 H   0  0  0  0  0  0  0  0  0  0  0  0
  1  2  2  0  0  0  0
  3  4  1  0  0  0  0
  1  6  1  0  0  0  0
  2  5  1  0  0  0  0
  5  3  2  0  0  0  0
  4  6  2  0  0  0  0
  5  7  1  0  0  0  0
  7  8  1  0  0  0  0
  8  9  2  0  0  0  0
 10 11  1  0  0  0  0
  8 13  1  0  0  0  0
  9 12  1  0  0  0  0
 12 10  2  0  0  0  0
 11 13  2  0  0  0  0
  6 14  1  0  0  0  0
  7 15  1  0  0  0  0
  1 16  1  0  0  0  0
  2 17  1  0  0  0  0
  3 18  1  0  0  0  0
  4 19  1  0  0  0  0
  9 20  1  0  0  0  0
 10 21  1  0  0  0  0
 11 22  1  0  0  0  0
 12 23  1  0  0  0  0
 13 24  1  0  0  0  0
 14 25  1  0  0  0  0
 14 26  1  0  0  0  0
M  END
>  <Substance ID> (133)
133

>  <Mouse_Female_Canc> (133)
1

>  <SAL> (133)
1

>  <Rat_Male_Canc> (133)
1

>  <TD50_Rat> (133)
NP

>  <TD50_Mouse> (133)
NP

>  <Rat_Female_Canc> (133)
1

>  <Canc> (133)
1

>  <MolWeight> (133)
184.24

>  <Mouse_Male_Canc> (133)
1

>  <Mouse_Male_NTP> (133)
ND

>  <ChemName> (133)
N-Phenyl-p-Phenylenediamine

>  <Rat_Male_NTP> (133)
ND

>  <Reference> (133)
NTP82

>  <Formula> (133)
C12H12N2

>  <SMILES> (133)
NC1(=CC=C(C=C1)NC2=CC=CC=C2)

>  <Rat_Female_NTP> (133)
ND

>  <CAS> (133)
101-54-2

>  <Mouse_Female_NTP> (133)
ND

>  <Synonyms> (133)
4-Aminodiphenylamine; p-anilinoaniline; p-semidine; acna black df base; azosalt R; diphenyl black; diphenyl black base P; C.I. 37240; C.I. 76085; C.I. azoic diazo component 22; C.I. developer 15; C.I. oxidation base 2; fast blue r salt; luxan black R; N-(4-aminophenyl)aniline; naphthoelan navy blue; N-phenyl-1,4-benzenediamine; N-phenyl-1,4-phenylenediamine; N-phenyl-p-aminoaniline; oxy acid black base; peltol br; peltol br ii; phenyl 4-aminophenyl amine; variamine blue salt rt.

$$$$
134


 18 18  0  0  0  0  0  0  0  0999 V2000
    3.7407  -88.8420   -0.0071 C   0  0  0  0  0  0  0  0  0  0  0  0
    3.6282  -90.1694   -0.0077 C   0  0  0  0  0  0  0  0  0  0  0  0
    6.0326  -90.4425   -0.0021 C   0  0  0  0  0  0  0  0  0  0  0  0
    6.1539  -88.9892    0.0002 C   0  0  0  0  0  0  0  0  0  0  0  0
    4.8285  -91.0079   -0.0054 C   0  0  0  0  0  0  0  0  0  0  0  0
    5.0690  -88.2151   -0.0023 C   0  0  0  0  0  0  0  0  0  0  0  0
    5.1647  -86.7968    0.0000 N   0  0  0  0  0  0  0  0  0  0  0  0
    6.3936  -86.0643    0.0052 C   0  0  0  0  0  0  0  0  0  0  0  0
    6.3449  -84.5011    0.0242 S   0  0  0  0  0  0  0  0  0  0  0  0
    7.6459  -86.6934   -0.0068 N   0  0  0  0  0  0  0  0  0  0  0  0
    2.9195  -88.2715   -0.0099 H   0  0  0  0  0  0  0  0  0  0  0  0
    2.7227  -90.5937   -0.0097 H   0  0  0  0  0  0  0  0  0  0  0  0
    6.8537  -91.0133   -0.0011 H   0  0  0  0  0  0  0  0  0  0  0  0
    7.0612  -88.5688    0.0035 H   0  0  0  0  0  0  0  0  0  0  0  0
    4.7433  -92.0042   -0.0064 H   0  0  0  0  0  0  0  0  0  0  0  0
    4.3123  -86.2739   -0.0022 H   0  0  0  0  0  0  0  0  0  0  0  0
    8.4815  -86.1441   -0.0026 H   0  0  0  0  0  0  0  0  0  0  0  0
    7.7039  -87.6916   -0.0196 H   0  0  0  0  0  0  0  0  0  0  0  0
  1  2  2  0  0  0  0
  3  4  1  0  0  0  0
  1  6  1  0  0  0  0
  2  5  1  0  0  0  0
  5  3  2  0  0  0  0
  4  6  2  0  0  0  0
  6  7  1  0  0  0  0
  7  8  1  0  0  0  0
  8  9  2  0  0  0  0
  8 10  1  0  0  0  0
  1 11  1  0  0  0  0
  2 12  1  0  0  0  0
  3 13  1  0  0  0  0
  4 14  1  0  0  0  0
  5 15  1  0  0  0  0
  7 16  1  0  0  0  0
 10 17  1  0  0  0  0
 10 18  1  0  0  0  0
M  END
>  <Substance ID> (134)
134

>  <Mouse_Female_Canc> (134)
1

>  <SAL> (134)
1

>  <Rat_Male_Canc> (134)
1

>  <TD50_Rat> (134)
NP

>  <TD50_Mouse> (134)
NP

>  <Rat_Female_Canc> (134)
1

>  <Canc> (134)
1

>  <MolWeight> (134)
152.21

>  <Mouse_Male_Canc> (134)
1

>  <Mouse_Male_NTP> (134)
ND

>  <ChemName> (134)
1-Phenyl-2-Thiourea 

>  <Rat_Male_NTP> (134)
ND

>  <Reference> (134)
NTP148

>  <Formula> (134)
C7H8N2S

>  <SMILES> (134)
NC(=S)NC1=CC=CC=C1

>  <Rat_Female_NTP> (134)
ND

>  <CAS> (134)
103-85-5

>  <Mouse_Female_NTP> (134)
ND

>  <Synonyms> (134)
1-phenylthiourea; alpha-phenylthiourea; N-phenylthiourea; Phenylthiocarbamide; Phenylthiourea; PTC; PTU; U 6324.

$$$$
135


 20 20  0  0  0  0  0  0  0  0999 V2000
   29.8002   -3.3315   -0.0017 C   0  0  0  0  0  0  0  0  0  0  0  0
   29.8176   -4.6591   -0.0021 C   0  0  0  0  0  0  0  0  0  0  0  0
   32.2549   -4.7249   -0.0012 C   0  0  0  0  0  0  0  0  0  0  0  0
   32.2348   -3.2023   -0.0009 C   0  0  0  0  0  0  0  0  0  0  0  0
   31.0895   -5.3748   -0.0016 C   0  0  0  0  0  0  0  0  0  0  0  0
   31.0528   -2.5831   -0.0010 C   0  0  0  0  0  0  0  0  0  0  0  0
   33.4320   -2.3111    0.0013 C   0  0  0  0  0  0  0  0  0  0  0  0
   33.4743   -5.5826    0.0004 C   0  0  0  0  0  0  0  0  0  0  0  0
   33.2490   -1.0907    0.0031 O   0  0  0  0  0  0  0  0  0  0  0  0
   33.3240   -6.8073    0.0006 O   0  0  0  0  0  0  0  0  0  0  0  0
   34.7325   -2.7693    0.0023 N   0  0  0  0  0  0  0  0  0  0  0  0
   34.7614   -5.0892    0.0016 N   0  0  0  0  0  0  0  0  0  0  0  0
   28.9273   -2.8437   -0.0018 H   0  0  0  0  0  0  0  0  0  0  0  0
   28.9577   -5.1696   -0.0028 H   0  0  0  0  0  0  0  0  0  0  0  0
   31.0877   -6.3748   -0.0016 H   0  0  0  0  0  0  0  0  0  0  0  0
   31.0248   -1.5835   -0.0005 H   0  0  0  0  0  0  0  0  0  0  0  0
   35.4919   -2.1187    0.0038 H   0  0  0  0  0  0  0  0  0  0  0  0
   34.9164   -3.7522    0.0016 H   0  0  0  0  0  0  0  0  0  0  0  0
   35.5383   -5.7188    0.0026 H   0  0  0  0  0  0  0  0  0  0  0  0
   34.9182   -4.1016    0.0014 H   0  0  0  0  0  0  0  0  0  0  0  0
  1  2  2  0  0  0  0
  3  4  1  0  0  0  0
  1  6  1  0  0  0  0
  2  5  1  0  0  0  0
  5  3  2  0  0  0  0
  4  6  2  0  0  0  0
  4  7  1  0  0  0  0
  3  8  1  0  0  0  0
  7  9  2  0  0  0  0
  8 10  2  0  0  0  0
  7 11  1  0  0  0  0
  8 12  1  0  0  0  0
  1 13  1  0  0  0  0
  2 14  1  0  0  0  0
  5 15  1  0  0  0  0
  6 16  1  0  0  0  0
 11 17  1  0  0  0  0
 11 18  1  0  0  0  0
 12 19  1  0  0  0  0
 12 20  1  0  0  0  0
M  END
>  <Substance ID> (135)
135

>  <Mouse_Female_Canc> (135)
1

>  <SAL> (135)
1

>  <Rat_Male_Canc> (135)
1

>  <TD50_Rat> (135)
NP

>  <TD50_Mouse> (135)
NP

>  <Rat_Female_Canc> (135)
1

>  <Canc> (135)
1

>  <MolWeight> (135)
164.16

>  <Mouse_Male_Canc> (135)
1

>  <Mouse_Male_NTP> (135)
ND

>  <ChemName> (135)
Phthalamide

>  <Rat_Male_NTP> (135)
ND

>  <Reference> (135)
NTP161

>  <Formula> (135)
C8H8N2O2

>  <SMILES> (135)
NC(=O)C1=C(C=CC=C1)C(=O)N

>  <Rat_Female_NTP> (135)
ND

>  <CAS> (135)
88-96-0

>  <Mouse_Female_NTP> (135)
ND

>  <Synonyms> (135)
1,2-Benzenedicarboxamide; o-phthalic acid diamide; Phthalamide.

$$$$
136


 15 16  0  0  0  0  0  0  0  0999 V2000
   31.7239  -12.3341    0.0018 C   0  0  0  0  0  0  0  0  0  0  0  0
   32.0169  -13.6432    0.0046 C   0  0  0  0  0  0  0  0  0  0  0  0
   33.4278  -14.0820    0.0025 C   0  0  0  0  0  0  0  0  0  0  0  0
   32.8133  -11.3358   -0.0012 C   0  0  0  0  0  0  0  0  0  0  0  0
   34.0546  -11.8030   -0.0008 C   0  0  0  0  0  0  0  0  0  0  0  0
   34.3516  -13.1299    0.0003 C   0  0  0  0  0  0  0  0  0  0  0  0
   35.7835  -13.2603   -0.0012 C   0  0  0  0  0  0  0  0  0  0  0  0
   36.4347  -11.9674   -0.0003 O   0  0  0  0  0  0  0  0  0  0  0  0
   35.2943  -11.0749   -0.0009 C   0  0  0  0  0  0  0  0  0  0  0  0
   35.3762   -9.8411   -0.0020 O   0  0  0  0  0  0  0  0  0  0  0  0
   36.3837  -14.3414   -0.0039 O   0  0  0  0  0  0  0  0  0  0  0  0
   30.7699  -12.0343    0.0018 H   0  0  0  0  0  0  0  0  0  0  0  0
   31.2816  -14.3209    0.0080 H   0  0  0  0  0  0  0  0  0  0  0  0
   33.6747  -15.0510    0.0026 H   0  0  0  0  0  0  0  0  0  0  0  0
   32.6235  -10.3540   -0.0036 H   0  0  0  0  0  0  0  0  0  0  0  0
  1  2  2  0  0  0  0
  1  4  1  0  0  0  0
  2  3  1  0  0  0  0
  3  6  2  0  0  0  0
  5  4  2  0  0  0  0
  5  6  1  0  0  0  0
  7  8  1  0  0  0  0
  8  9  1  0  0  0  0
  9  5  1  0  0  0  0
  6  7  1  0  0  0  0
  9 10  2  0  0  0  0
  7 11  2  0  0  0  0
  1 12  1  0  0  0  0
  2 13  1  0  0  0  0
  3 14  1  0  0  0  0
  4 15  1  0  0  0  0
M  END
>  <Substance ID> (136)
136

>  <Mouse_Female_Canc> (136)
1

>  <SAL> (136)
1

>  <Rat_Male_Canc> (136)
1

>  <TD50_Rat> (136)
NP

>  <TD50_Mouse> (136)
NP

>  <Rat_Female_Canc> (136)
1

>  <Canc> (136)
1

>  <MolWeight> (136)
148.12

>  <Mouse_Male_Canc> (136)
1

>  <Mouse_Male_NTP> (136)
ND

>  <ChemName> (136)
Phthalic Anhydride

>  <Rat_Male_NTP> (136)
ND

>  <Reference> (136)
NTP159

>  <Formula> (136)
C8H4O3

>  <SMILES> (136)
O=C1C2=C(C=CC=C2)C(=O)O1

>  <Rat_Female_NTP> (136)
ND

>  <CAS> (136)
85-44-9

>  <Mouse_Female_NTP> (136)
ND

>  <Synonyms> (136)
1,2-Benzenedicarboxylic acid anhydride; 1,2-benzenedicarboxylic anhydride; 1,3-dihydro-1,3-dioxoisobenzofuran; 1,3-Dioxophthalan; 1,3-Isobenzofurandione; 1,3 Phthalandione; ESEN; phthalandione; Phthalic acid anhydride; retarder ak; retarder esen; retarder pd.

$$$$
137


 54 55  0  0  0  0  0  0  0  0999 V2000
   40.0470  -18.9121   -0.0229 C   0  0  0  0  0  0  0  0  0  0  0  0
   40.1812  -20.2603   -0.2148 C   0  0  0  0  0  0  0  0  0  0  0  0
   41.5520  -20.8362   -0.2333 C   0  0  0  0  0  0  0  0  0  0  0  0
   41.2808  -18.1060    0.1463 C   0  0  0  0  0  0  0  0  0  0  0  0
   42.4690  -18.6953    0.1001 C   0  0  0  0  0  0  0  0  0  0  0  0
   42.6025  -20.0400   -0.0828 C   0  0  0  0  0  0  0  0  0  0  0  0
   43.9096  -20.4406   -0.0904 O   0  0  0  0  0  0  0  0  0  0  0  0
   44.6513  -19.1659    0.0928 C   0  0  0  0  0  0  0  0  0  0  0  0
   43.6691  -18.0581    0.2231 O   0  0  0  0  0  0  0  0  0  0  0  0
   39.0370  -21.2609   -0.4682 C   0  0  0  0  0  0  0  0  0  0  0  0
   38.7214  -18.0882    0.0057 C   0  0  0  0  0  0  0  0  0  0  0  0
   37.5124  -18.8099   -0.2073 O   0  0  0  0  0  0  0  0  0  0  0  0
   36.3713  -17.9457   -0.0538 C   0  0  0  0  0  0  0  0  0  0  0  0
   35.0883  -18.8080   -0.1467 C   0  0  0  0  0  0  0  0  0  0  0  0
   33.9106  -18.0092    0.0025 O   0  0  0  0  0  0  0  0  0  0  0  0
   32.7635  -18.8726   -0.0559 C   0  0  0  0  0  0  0  0  0  0  0  0
   31.4660  -18.0406    0.0394 C   0  0  0  0  0  0  0  0  0  0  0  0
   30.3190  -18.9012   -0.0182 O   0  0  0  0  0  0  0  0  0  0  0  0
   29.1344  -18.0930    0.0289 C   0  0  0  0  0  0  0  0  0  0  0  0
   27.8646  -18.9735   -0.0178 C   0  0  0  0  0  0  0  0  0  0  0  0
   26.6167  -18.0619    0.0232 C   0  0  0  0  0  0  0  0  0  0  0  0
   25.3353  -18.9177   -0.0130 C   0  0  0  0  0  0  0  0  0  0  0  0
   38.0734  -21.5143    0.7198 C   0  0  0  0  0  0  0  0  0  0  0  0
   36.9724  -22.4903    0.2425 C   0  0  0  0  0  0  0  0  0  0  0  0
   41.6816  -21.8198   -0.3588 H   0  0  0  0  0  0  0  0  0  0  0  0
   41.2172  -17.1192    0.2950 H   0  0  0  0  0  0  0  0  0  0  0  0
   45.2111  -19.2183    0.9198 H   0  0  0  0  0  0  0  0  0  0  0  0
   45.2400  -19.0024   -0.6988 H   0  0  0  0  0  0  0  0  0  0  0  0
   38.4936  -20.9154   -1.2333 H   0  0  0  0  0  0  0  0  0  0  0  0
   39.4482  -22.1371   -0.7196 H   0  0  0  0  0  0  0  0  0  0  0  0
   38.6575  -17.6489    0.9017 H   0  0  0  0  0  0  0  0  0  0  0  0
   38.7850  -17.3881   -0.7055 H   0  0  0  0  0  0  0  0  0  0  0  0
   36.4092  -17.4917    0.8364 H   0  0  0  0  0  0  0  0  0  0  0  0
   36.3689  -17.2577   -0.7795 H   0  0  0  0  0  0  0  0  0  0  0  0
   35.0640  -19.2599   -1.0384 H   0  0  0  0  0  0  0  0  0  0  0  0
   35.1071  -19.4980    0.5769 H   0  0  0  0  0  0  0  0  0  0  0  0
   32.7714  -19.3745   -0.9207 H   0  0  0  0  0  0  0  0  0  0  0  0
   32.7978  -19.5195    0.7059 H   0  0  0  0  0  0  0  0  0  0  0  0
   31.4587  -17.5384    0.9041 H   0  0  0  0  0  0  0  0  0  0  0  0
   31.4320  -17.3939   -0.7225 H   0  0  0  0  0  0  0  0  0  0  0  0
   29.1337  -17.5621    0.8764 H   0  0  0  0  0  0  0  0  0  0  0  0
   29.1307  -17.4713   -0.7544 H   0  0  0  0  0  0  0  0  0  0  0  0
   27.8599  -19.5100   -0.8617 H   0  0  0  0  0  0  0  0  0  0  0  0
   27.8552  -19.5898    0.7697 H   0  0  0  0  0  0  0  0  0  0  0  0
   26.6296  -17.5211    0.8642 H   0  0  0  0  0  0  0  0  0  0  0  0
   26.6281  -17.4499   -0.7676 H   0  0  0  0  0  0  0  0  0  0  0  0
   24.5340  -18.3202    0.0139 H   0  0  0  0  0  0  0  0  0  0  0  0
   25.3205  -19.5301    0.7775 H   0  0  0  0  0  0  0  0  0  0  0  0
   25.3189  -19.4589   -0.8538 H   0  0  0  0  0  0  0  0  0  0  0  0
   38.5762  -21.9178    1.4843 H   0  0  0  0  0  0  0  0  0  0  0  0
   37.6594  -20.6518    1.0107 H   0  0  0  0  0  0  0  0  0  0  0  0
   36.3369  -22.6696    0.9935 H   0  0  0  0  0  0  0  0  0  0  0  0
   37.3920  -23.3493   -0.0507 H   0  0  0  0  0  0  0  0  0  0  0  0
   36.4754  -22.0837   -0.5242 H   0  0  0  0  0  0  0  0  0  0  0  0
  1  2  2  0  0  0  0
  1  4  1  0  0  0  0
  2  3  1  0  0  0  0
  3  6  2  0  0  0  0
  5  4  2  0  0  0  0
  5  6  1  0  0  0  0
  7  8  1  0  0  0  0
  8  9  1  0  0  0  0
  9  5  1  0  0  0  0
  6  7  1  0  0  0  0
  2 10  1  0  0  0  0
  1 11  1  0  0  0  0
 11 12  1  0  0  0  0
 12 13  1  0  0  0  0
 13 14  1  0  0  0  0
 14 15  1  0  0  0  0
 15 16  1  0  0  0  0
 16 17  1  0  0  0  0
 17 18  1  0  0  0  0
 18 19  1  0  0  0  0
 19 20  1  0  0  0  0
 20 21  1  0  0  0  0
 21 22  1  0  0  0  0
 10 23  1  0  0  0  0
 23 24  1  0  0  0  0
  3 25  1  0  0  0  0
  4 26  1  0  0  0  0
  8 27  1  0  0  0  0
  8 28  1  0  0  0  0
 10 29  1  0  0  0  0
 10 30  1  0  0  0  0
 11 31  1  0  0  0  0
 11 32  1  0  0  0  0
 13 33  1  0  0  0  0
 13 34  1  0  0  0  0
 14 35  1  0  0  0  0
 14 36  1  0  0  0  0
 16 37  1  0  0  0  0
 16 38  1  0  0  0  0
 17 39  1  0  0  0  0
 17 40  1  0  0  0  0
 19 41  1  0  0  0  0
 19 42  1  0  0  0  0
 20 43  1  0  0  0  0
 20 44  1  0  0  0  0
 21 45  1  0  0  0  0
 21 46  1  0  0  0  0
 22 47  1  0  0  0  0
 22 48  1  0  0  0  0
 22 49  1  0  0  0  0
 23 50  1  0  0  0  0
 23 51  1  0  0  0  0
 24 52  1  0  0  0  0
 24 53  1  0  0  0  0
 24 54  1  0  0  0  0
M  END
>  <Substance ID> (137)
137

>  <Mouse_Female_Canc> (137)
1

>  <SAL> (137)
1

>  <Rat_Male_Canc> (137)
1

>  <TD50_Rat> (137)
NP

>  <TD50_Mouse> (137)
NP

>  <Rat_Female_Canc> (137)
1

>  <Canc> (137)
1

>  <MolWeight> (137)
338.44

>  <Mouse_Male_Canc> (137)
1

>  <Mouse_Male_NTP> (137)
ND

>  <ChemName> (137)
Pyrenone 606

>  <Rat_Male_NTP> (137)
ND

>  <Reference> (137)
NTP120

>  <Formula> (137)
C19H30O5

>  <SMILES> (137)
CCCC1=CC2=C(C=C1COCCOCCOCCCC)OCO2

>  <Rat_Female_NTP> (137)
ND

>  <CAS> (137)
51-03-6

>  <Mouse_Female_NTP> (137)
ND

>  <Synonyms> (137)
(3,4-methylenedioxy-6-propylbenzyl)(butyl) diethylene glycol ether; 3,4-Methylenedioxy-6-propylbenzyl n-butyl diethylene glycol ether; 4,5-Methylenedioxy-2-propylbenzyldiethyleneglycol butyl ether; 5-((2-(2-butoxyethoxy)ethoxy)methyl)-6-propyl-1,3-benzodioxole; 6-Propylpiperonyl Butyl Diethylene Glycol Ether; 6-(propylpiperonyl)-butyl carbityl ether; alpha-(2-(2-butoxyethoxy)ethoxy)-4,5-methylenedioxy-2-propyltoluene; Alleviate; Benzodioxole, 5-((2-(2-butoxyethoxy)ethoxy)methyl)-6-propyl-; Butacide; butocide; butyl carbitol 6-propylpiperonyl ether; butyl-carbityl (6-propylpiperonyl) ether; nia 5273; Obilique; PB; Propylpiperonyl butyl diethyleneglycol ether; pybuthrin; Scourge; synpren-fish; Vex.

$$$$
138


 37 39  0  0  0  0  0  0  0  0999 V2000
   29.2283  -26.8841   -0.0617 C   0  0  0  0  0  0  0  0  0  0  0  0
   29.9764  -27.9865   -0.1223 C   0  0  0  0  0  0  0  0  0  0  0  0
   32.0118  -26.6874    0.0991 C   0  0  0  0  0  0  0  0  0  0  0  0
   31.1785  -25.4865    0.1737 C   0  0  0  0  0  0  0  0  0  0  0  0
   31.4418  -27.8844   -0.0394 C   0  0  0  0  0  0  0  0  0  0  0  0
   29.8561  -25.5804    0.0959 C   0  0  0  0  0  0  0  0  0  0  0  0
   27.4721  -26.9855   -0.1685 S   0  0  0  0  0  0  0  0  0  0  0  0
   33.4000  -26.5413    0.1581 N   0  0  0  0  0  0  0  0  0  0  0  0
   34.1759  -27.4683    0.0949 N   0  0  0  0  0  0  0  0  0  0  0  0
   26.9447  -25.7693   -0.9051 O   0  0  0  0  0  0  0  0  0  0  0  0
   27.0673  -28.2683   -0.8668 O   0  0  0  0  0  0  0  0  0  0  0  0
   26.8555  -26.9766    1.4075 O   0  5  0  0  0  0  0  0  0  0  0  0
   35.5589  -27.1812    0.1189 C   0  0  0  0  0  0  0  0  0  0  0  0
   38.2982  -26.5852    0.1456 C   0  0  0  0  0  0  0  0  0  0  0  0
   37.3256  -25.5038    0.2189 C   0  0  0  0  0  0  0  0  0  0  0  0
   36.0231  -25.7750    0.2062 C   0  0  0  0  0  0  0  0  0  0  0  0
   37.8835  -27.8464    0.0680 C   0  0  0  0  0  0  0  0  0  0  0  0
   36.4629  -28.1617    0.0555 C   0  0  0  0  0  0  0  0  0  0  0  0
   36.9890  -30.5179   -0.1026 C   0  0  0  0  0  0  0  0  0  0  0  0
   38.4358  -30.1910   -0.0965 C   0  0  0  0  0  0  0  0  0  0  0  0
   36.0588  -29.5607   -0.0315 C   0  0  0  0  0  0  0  0  0  0  0  0
   38.8506  -28.9275   -0.0136 C   0  0  0  0  0  0  0  0  0  0  0  0
   39.6381  -31.4891   -0.2069 S   0  0  0  0  0  0  0  0  0  0  0  0
   38.9917  -32.7560   -0.7334 O   0  0  0  0  0  0  0  0  0  0  0  0
   40.7730  -31.0476   -1.1118 O   0  0  0  0  0  0  0  0  0  0  0  0
   35.1123  -24.7229    0.2741 O   0  0  0  0  0  0  0  0  0  0  0  0
   40.2760  -31.7823    1.3409 O   0  5  0  0  0  0  0  0  0  0  0  0
   29.5419  -28.8814   -0.2240 H   0  0  0  0  0  0  0  0  0  0  0  0
   31.6075  -24.5899    0.2838 H   0  0  0  0  0  0  0  0  0  0  0  0
   32.0069  -28.7081   -0.0867 H   0  0  0  0  0  0  0  0  0  0  0  0
   29.2921  -24.7561    0.1457 H   0  0  0  0  0  0  0  0  0  0  0  0
   39.2768  -26.3797    0.1535 H   0  0  0  0  0  0  0  0  0  0  0  0
   37.6373  -24.5555    0.2790 H   0  0  0  0  0  0  0  0  0  0  0  0
   36.7035  -31.4745   -0.1612 H   0  0  0  0  0  0  0  0  0  0  0  0
   35.0886  -29.8029   -0.0378 H   0  0  0  0  0  0  0  0  0  0  0  0
   39.8294  -28.7229   -0.0076 H   0  0  0  0  0  0  0  0  0  0  0  0
   35.6074  -23.8557    0.3274 H   0  0  0  0  0  0  0  0  0  0  0  0
  1  2  2  0  0  0  0
  3  4  1  0  0  0  0
  1  6  1  0  0  0  0
  2  5  1  0  0  0  0
  5  3  2  0  0  0  0
  4  6  2  0  0  0  0
  1  7  1  0  0  0  0
  3  8  1  0  0  0  0
  8  9  2  0  0  0  0
  7 10  2  0  0  0  0
  7 11  2  0  0  0  0
  7 12  1  0  0  0  0
  9 13  1  0  0  0  0
 13 18  2  0  0  0  0
 14 15  1  0  0  0  0
 13 16  1  0  0  0  0
 17 14  2  0  0  0  0
 15 16  2  0  0  0  0
 17 18  1  0  0  0  0
 19 20  1  0  0  0  0
 17 22  1  0  0  0  0
 18 21  1  0  0  0  0
 21 19  2  0  0  0  0
 20 22  2  0  0  0  0
 20 23  1  0  0  0  0
 23 24  2  0  0  0  0
 23 25  2  0  0  0  0
 16 26  1  0  0  0  0
 23 27  1  0  0  0  0
  2 28  1  0  0  0  0
  4 29  1  0  0  0  0
  5 30  1  0  0  0  0
  6 31  1  0  0  0  0
 14 32  1  0  0  0  0
 15 33  1  0  0  0  0
 19 34  1  0  0  0  0
 21 35  1  0  0  0  0
 22 36  1  0  0  0  0
 26 37  1  0  0  0  0
M  END
>  <Substance ID> (138)
138

>  <Mouse_Female_Canc> (138)
1

>  <SAL> (138)
1

>  <Rat_Male_Canc> (138)
1

>  <TD50_Rat> (138)
NP

>  <TD50_Mouse> (138)
NP

>  <Rat_Female_Canc> (138)
1

>  <Canc> (138)
1

>  <MolWeight> (138)
452.37

>  <Mouse_Male_Canc> (138)
1

>  <Mouse_Male_NTP> (138)
ND

>  <ChemName> (138)
FD & C Yellow no. 6

>  <Rat_Male_NTP> (138)
ND

>  <Reference> (138)
NTP208

>  <Formula> (138)
C16H10N2O7S2Na2 

>  <SMILES> (138)
Oc2ccc1cc(ccc1c2N=Nc3ccc(cc3)S([O-].[Na+].)(=O)=O)S([O-].[Na+].)(=O)=O

>  <Rat_Female_NTP> (138)
ND

>  <CAS> (138)
2783-94-0

>  <Mouse_Female_NTP> (138)
ND

>  <Synonyms> (138)
1351 yellow; 1-p-sulfophenylazo-2-hydroxynaphthalene-6-sulfonate, disodium salt; 1-p-sulfophenylazo-2-naphthol-6-sulfonic acid, disodium salt; 1899 yellow; para orange; 6-hydroxy-5-((p-sulfophenyl)azo)-2-naphthalenesulfonic acid disodium salt; 6-Hydroxy-5-(4-sulfophenylazo)-2-naphthalenesulfonic acid trisodium salt; acid yellow tra; a.f. yellow no. 5; aizen food yellow no. 5; alabaster no. 3; atul sunset yellow fcf; disodium salt of 1-p-sulfophenylazo-2-naphthol-6-sulfonic acid; dispersed orange 11348; dispersed yellow 12116; canacert sunset yellow fcf; certicol sunset yellow cfs; certolake sunset yellow; C.I. 15985; C.I. food yellow 3; C.I. food yellow 3, disodium salt; cilefa orange s; dolkwal sunset yellow; dye fdc yellow lake 6; dye fdc yellow no. 6; dye sunset yellow; E 110; edicol supra yellow fc; eniacid sunset yellow; eurocert orange fcf; fd & c no. 6; fd & c yellow 6; fd and c yellow lake no. 6; fd & c yellow no. 6 aluminum lake; foodcol sunset yellow fcf; food yellow 3; food yellow 6; Food Yellow No.5; hd sunset yellow fcf; hd sunset yellow fcf supra; hexacol sunset yellow f & f supra; hexacol sunset yellow fcf; hexacol sunset yellow fcf supra; hexacol sunset yellow fcp; jaune orange s; jaune soleil; kca foodcol sunset yellow fcf; L-Orange 2; L. Orange Z2010; maple sunset yellow fcf; orange ii r; orange pal; orange rgl; orange yellow s; orange yellow s.af; orange yellow s.fq; standacol sunset yellow fcf; sun orange a geigy; Sunset Yellow; sunset yellow bss; Sunset yellow FCF; sunset yellow fcf supra; sunset yellow fu; sunset yellow fu supra; sunset yellow lake; sun yellow; sun yellow a-ce; sun yellow a-fdc; sun yellow fcf; Trisodium 6-hydroxy-5-(4-sulfonatophenylazo)-2-naphthalenesulfonate; usacert fd & c yellow no. 6; usacert yellow no. 6; usalake fd & c yellow no. 6 lake; yellow no. 6; yellow orange s; yellow orange specially pure 85; yellow orange s specially pure; yellow sf for food; yellow sun; yellow sy for food.

$$$$
139


 18 18  0  0  0  0  0  0  0  0999 V2000
   30.7673  -39.2190    0.0002 C   0  0  0  0  0  0  0  0  0  0  0  0
   30.7481  -40.5440   -0.0007 C   0  0  0  0  0  0  0  0  0  0  0  0
   33.1732  -40.6106    0.0009 C   0  0  0  0  0  0  0  0  0  0  0  0
   33.2034  -39.1754    0.0005 C   0  0  0  0  0  0  0  0  0  0  0  0
   32.0192  -41.2875    0.0007 C   0  0  0  0  0  0  0  0  0  0  0  0
   32.0413  -38.4711    0.0004 C   0  0  0  0  0  0  0  0  0  0  0  0
   31.8948  -37.0345    0.0007 O   0  0  0  0  0  0  0  0  0  0  0  0
   34.8230  -38.5141    0.0004 Cl  0  0  0  0  0  0  0  0  0  0  0  0
   34.7153  -41.4041    0.0022 Cl  0  0  0  0  0  0  0  0  0  0  0  0
   29.2076  -41.3526   -0.0020 Cl  0  0  0  0  0  0  0  0  0  0  0  0
   29.2660  -38.3571    0.0017 Cl  0  0  0  0  0  0  0  0  0  0  0  0
   33.0615  -36.2080    0.0005 C   0  0  0  0  0  0  0  0  0  0  0  0
   32.0228  -42.6990    0.0005 N   0  3  0  0  0  0  0  0  0  0  0  0
   30.8946  -43.3804   -0.0105 O   0  5  0  0  0  0  0  0  0  0  0  0
   33.0317  -43.2928    0.0051 O   0  0  0  0  0  0  0  0  0  0  0  0
   32.7889  -35.2459    0.0008 H   0  0  0  0  0  0  0  0  0  0  0  0
   33.6060  -36.3994   -0.8161 H   0  0  0  0  0  0  0  0  0  0  0  0
   33.6065  -36.3998    0.8167 H   0  0  0  0  0  0  0  0  0  0  0  0
  1  2  2  0  0  0  0
  3  4  1  0  0  0  0
  1  6  1  0  0  0  0
  2  5  1  0  0  0  0
  5  3  2  0  0  0  0
  4  6  2  0  0  0  0
  6  7  1  0  0  0  0
  4  8  1  0  0  0  0
  3  9  1  0  0  0  0
  2 10  1  0  0  0  0
  1 11  1  0  0  0  0
  7 12  1  0  0  0  0
 13 14  1  0  0  0  0
 13 15  2  0  0  0  0
  5 13  1  0  0  0  0
 12 16  1  0  0  0  0
 12 17  1  0  0  0  0
 12 18  1  0  0  0  0
M  END
>  <Substance ID> (139)
139

>  <Mouse_Female_Canc> (139)
1

>  <SAL> (139)
1

>  <Rat_Male_Canc> (139)
1

>  <TD50_Rat> (139)
NP

>  <TD50_Mouse> (139)
NP

>  <Rat_Female_Canc> (139)
1

>  <Canc> (139)
1

>  <MolWeight> (139)
290.92

>  <Mouse_Male_Canc> (139)
1

>  <Mouse_Male_NTP> (139)
ND

>  <ChemName> (139)
2,3,5,6-Tetrachloro-4-Nitroanisole 

>  <Rat_Male_NTP> (139)
ND

>  <Reference> (139)
NTP114

>  <Formula> (139)
C7H3Cl4NO3

>  <SMILES> (139)
ClC1=C(Cl)C(=C(Cl)C(=C1OC)Cl)[N+]([O-])=O

>  <Rat_Female_NTP> (139)
ND

>  <CAS> (139)
2438-88-2

>  <Mouse_Female_NTP> (139)
ND

>  <Synonyms> (139)
1,2,4,5-tetrachloro-3-methoxy-6-nitrobenzene; 2,3,5,6-tetrachloronitroanisole; 4-nitro-2,3,5,6-tetrachloroanisole; TCNA; tetrachloronitroanisole.

$$$$
140


 36 35  0  0  0  0  0  0  0  0999 V2000
   26.3893  -41.5092    0.1614 N   0  0  0  0  0  0  0  0  0  0  0  0
   25.4090  -40.3678    0.3852 C   0  0  0  0  0  0  0  0  0  0  0  0
   26.1007  -42.9695    0.4610 C   0  0  0  0  0  0  0  0  0  0  0  0
   27.7697  -41.1419   -0.0155 C   0  0  0  0  0  0  0  0  0  0  0  0
   24.0381  -40.4589   -0.3338 C   0  0  0  0  0  0  0  0  0  0  0  0
   24.9388  -43.6262   -0.3323 C   0  0  0  0  0  0  0  0  0  0  0  0
   28.1601  -39.6322   -0.1471 S   0  0  0  0  0  0  0  0  0  0  0  0
   29.0365  -42.3871   -0.0632 S   0  0  0  0  0  0  0  0  0  0  0  0
   30.9137  -41.4804   -0.1868 S   0  0  0  0  0  0  0  0  0  0  0  0
   32.1883  -42.7044   -0.0054 C   0  0  0  0  0  0  0  0  0  0  0  0
   33.5427  -42.3345   -0.0289 N   0  0  0  0  0  0  0  0  0  0  0  0
   31.7977  -44.2083    0.1934 S   0  0  0  0  0  0  0  0  0  0  0  0
   33.8864  -40.9353   -0.2793 C   0  0  0  0  0  0  0  0  0  0  0  0
   34.8754  -40.3653    0.7779 C   0  0  0  0  0  0  0  0  0  0  0  0
   34.5551  -43.3673    0.2013 C   0  0  0  0  0  0  0  0  0  0  0  0
   35.7538  -43.2756   -0.7845 C   0  0  0  0  0  0  0  0  0  0  0  0
   25.2301  -40.3134    1.3676 H   0  0  0  0  0  0  0  0  0  0  0  0
   25.8533  -39.5256    0.0797 H   0  0  0  0  0  0  0  0  0  0  0  0
   26.9325  -43.4891    0.2661 H   0  0  0  0  0  0  0  0  0  0  0  0
   25.8822  -43.0418    1.4342 H   0  0  0  0  0  0  0  0  0  0  0  0
   23.4885  -39.6546   -0.1078 H   0  0  0  0  0  0  0  0  0  0  0  0
   23.5588  -41.2842   -0.0352 H   0  0  0  0  0  0  0  0  0  0  0  0
   24.1817  -40.4966   -1.3227 H   0  0  0  0  0  0  0  0  0  0  0  0
   24.8423  -44.5815   -0.0532 H   0  0  0  0  0  0  0  0  0  0  0  0
   25.1374  -43.5838   -1.3115 H   0  0  0  0  0  0  0  0  0  0  0  0
   24.0874  -43.1367   -0.1438 H   0  0  0  0  0  0  0  0  0  0  0  0
   34.3086  -40.8659   -1.1832 H   0  0  0  0  0  0  0  0  0  0  0  0
   33.0478  -40.3909   -0.2599 H   0  0  0  0  0  0  0  0  0  0  0  0
   35.0787  -39.4099    0.5639 H   0  0  0  0  0  0  0  0  0  0  0  0
   35.7223  -40.8971    0.7636 H   0  0  0  0  0  0  0  0  0  0  0  0
   34.4619  -40.4222    1.6866 H   0  0  0  0  0  0  0  0  0  0  0  0
   34.9020  -43.2706    1.1342 H   0  0  0  0  0  0  0  0  0  0  0  0
   34.1247  -44.2639    0.0964 H   0  0  0  0  0  0  0  0  0  0  0  0
   36.4100  -44.0021   -0.5807 H   0  0  0  0  0  0  0  0  0  0  0  0
   36.2003  -42.3863   -0.6852 H   0  0  0  0  0  0  0  0  0  0  0  0
   35.4232  -43.3792   -1.7226 H   0  0  0  0  0  0  0  0  0  0  0  0
  1  2  1  0  0  0  0
  1  3  1  0  0  0  0
  1  4  1  0  0  0  0
  2  5  1  0  0  0  0
  3  6  1  0  0  0  0
  4  7  2  0  0  0  0
  4  8  1  0  0  0  0
  8  9  1  0  0  0  0
  9 10  1  0  0  0  0
 10 11  1  0  0  0  0
 10 12  2  0  0  0  0
 11 13  1  0  0  0  0
 13 14  1  0  0  0  0
 11 15  1  0  0  0  0
 15 16  1  0  0  0  0
  2 17  1  0  0  0  0
  2 18  1  0  0  0  0
  3 19  1  0  0  0  0
  3 20  1  0  0  0  0
  5 21  1  0  0  0  0
  5 22  1  0  0  0  0
  5 23  1  0  0  0  0
  6 24  1  0  0  0  0
  6 25  1  0  0  0  0
  6 26  1  0  0  0  0
 13 27  1  0  0  0  0
 13 28  1  0  0  0  0
 14 29  1  0  0  0  0
 14 30  1  0  0  0  0
 14 31  1  0  0  0  0
 15 32  1  0  0  0  0
 15 33  1  0  0  0  0
 16 34  1  0  0  0  0
 16 35  1  0  0  0  0
 16 36  1  0  0  0  0
M  END
>  <Substance ID> (140)
140

>  <Mouse_Female_Canc> (140)
1

>  <SAL> (140)
1

>  <Rat_Male_Canc> (140)
1

>  <TD50_Rat> (140)
NP

>  <TD50_Mouse> (140)
NP

>  <Rat_Female_Canc> (140)
1

>  <Canc> (140)
1

>  <MolWeight> (140)
296.52

>  <Mouse_Male_Canc> (140)
1

>  <Mouse_Male_NTP> (140)
ND

>  <ChemName> (140)
Tetraethylthiuram Disulfide

>  <Rat_Male_NTP> (140)
ND

>  <Reference> (140)
NTP166

>  <Formula> (140)
C10H20N2S4

>  <SMILES> (140)
S=C(N(CC)CC)SSC(=S)N(CC)CC

>  <Rat_Female_NTP> (140)
ND

>  <CAS> (140)
97-77-8

>  <Mouse_Female_NTP> (140)
ND

>  <Synonyms> (140)
1,1'-dithiobis(N,N-diethylthioformamide); Abstenisil; Averzan; bis((diethylamino)thioxomethyl)disulfide; bis(Diethylthiocarbamoyl) disulfide; Dicupral; bis(N,N-diethylthiocarbamoyl) disulfide; Disetil; Disulfamide; disulfan; Disulfiram; DISULFIRAM (TETRAETHYLTHIURAM DISULFIDE); Disulfirm; disulfuram; Bonibal; Contralin; Contrapot; Cronetal; Ekagom DTET; Ekagom TEDS; Ephorran; Espenal; Esperal; Etabus; Ethyldithiourame; Ethyldithiurame; Ethyl thiram; Ethyl thiudad; Ethyl Thiurad; Ethyl tuads; Ethyl tuex; Exhoran; Exhorran; HOCA; Krotenal; N,N,N',N'-tetraethylthiuram disulfide; Nocbin; Nocceler; Noxal; Refusal; Robac TET; Ro-Sulfiram; Stopaethyl; Stopethyl; Stopetyl; TATD; Tenurid; Tenutex; TETD; tetidis; Tetradine; Tetraethylthioperoxydicarbonothioic Diamide; tetraethylthiram disulfide; tetraethylthiuram; Tetraetil; teturam; Teturamin; thioscabin; thireranide; thiuram e; Thiuranide; tillram; tiuram; TTD; TTS; Abstensil; abstinil; Abstinyl; Accel TET; Alcophobin; alk-aubs; Antadix; Antabuse; Antaenyl; Antaethan; Antaethyl; Antalcol; Antetan; antethyl; Antetil; Anteyl; Anticol; Antietanol; Antiethanol; anti-ethyl; Antietil; Antikol; Antivitium; Aversan.

$$$$
141


 42 43  0  0  0  0  0  0  0  0999 V2000
   41.9729  -62.2821    0.4086 N   0  0  0  0  0  0  0  0  0  0  0  0
   42.9485  -63.2927    0.7379 C   0  0  0  0  0  0  0  0  0  0  0  0
   44.1411  -63.3968   -0.2487 C   0  0  0  0  0  0  0  0  0  0  0  0
   45.2493  -62.3568   -0.0128 C   0  0  0  0  0  0  0  0  0  0  0  0
   44.8592  -60.9121   -0.3235 C   0  0  0  0  0  0  0  0  0  0  0  0
   43.7205  -60.3874    0.5518 C   0  0  0  0  0  0  0  0  0  0  0  0
   42.3352  -60.8963    0.1141 C   0  0  0  0  0  0  0  0  0  0  0  0
   32.6526  -62.1972    0.5882 C   0  0  0  0  0  0  0  0  0  0  0  0
   33.4626  -63.2372    0.3815 C   0  0  0  0  0  0  0  0  0  0  0  0
   35.2799  -61.7746   -0.2678 C   0  0  0  0  0  0  0  0  0  0  0  0
   34.3906  -60.6373   -0.0211 C   0  0  0  0  0  0  0  0  0  0  0  0
   34.8452  -63.0171   -0.0727 C   0  0  0  0  0  0  0  0  0  0  0  0
   33.1404  -60.8377    0.3834 C   0  0  0  0  0  0  0  0  0  0  0  0
   36.9006  -61.4473   -0.8917 S   0  0  0  0  0  0  0  0  0  0  0  0
   38.1813  -62.3666   -0.0934 N   0  0  0  0  0  0  0  0  0  0  0  0
   39.5320  -61.8485   -0.0390 C   0  0  0  0  0  0  0  0  0  0  0  0
   37.1176  -59.9474   -0.8208 O   0  0  0  0  0  0  0  0  0  0  0  0
   36.8775  -61.8764   -2.3507 O   0  0  0  0  0  0  0  0  0  0  0  0
   39.7263  -60.6894   -0.4034 O   0  0  0  0  0  0  0  0  0  0  0  0
   40.6513  -62.6985    0.4015 N   0  0  0  0  0  0  0  0  0  0  0  0
   40.4628  -63.6376    0.6813 H   0  0  0  0  0  0  0  0  0  0  0  0
   37.9811  -63.2731    0.2683 H   0  0  0  0  0  0  0  0  0  0  0  0
   31.2351  -62.4195    1.0297 C   0  0  0  0  0  0  0  0  0  0  0  0
   43.3138  -63.0872    1.6458 H   0  0  0  0  0  0  0  0  0  0  0  0
   42.4838  -64.1779    0.7576 H   0  0  0  0  0  0  0  0  0  0  0  0
   44.5428  -64.3083   -0.1595 H   0  0  0  0  0  0  0  0  0  0  0  0
   43.7908  -63.2760   -1.1775 H   0  0  0  0  0  0  0  0  0  0  0  0
   45.5193  -62.4047    0.9489 H   0  0  0  0  0  0  0  0  0  0  0  0
   46.0288  -62.5983   -0.5908 H   0  0  0  0  0  0  0  0  0  0  0  0
   45.6605  -60.3306   -0.1828 H   0  0  0  0  0  0  0  0  0  0  0  0
   44.5729  -60.8602   -1.2802 H   0  0  0  0  0  0  0  0  0  0  0  0
   43.8833  -60.6801    1.4940 H   0  0  0  0  0  0  0  0  0  0  0  0
   43.7205  -59.3884    0.5078 H   0  0  0  0  0  0  0  0  0  0  0  0
   42.2791  -60.7815   -0.8778 H   0  0  0  0  0  0  0  0  0  0  0  0
   41.6539  -60.3132    0.5566 H   0  0  0  0  0  0  0  0  0  0  0  0
   33.1298  -64.1675    0.5355 H   0  0  0  0  0  0  0  0  0  0  0  0
   34.7258  -59.7051   -0.1577 H   0  0  0  0  0  0  0  0  0  0  0  0
   35.4528  -63.7948   -0.2335 H   0  0  0  0  0  0  0  0  0  0  0  0
   32.5355  -60.0584    0.5469 H   0  0  0  0  0  0  0  0  0  0  0  0
   30.7762  -61.5373    1.1353 H   0  0  0  0  0  0  0  0  0  0  0  0
   31.2301  -62.9042    1.9044 H   0  0  0  0  0  0  0  0  0  0  0  0
   30.7536  -62.9652    0.3439 H   0  0  0  0  0  0  0  0  0  0  0  0
  1  2  1  0  0  0  0
  2  3  1  0  0  0  0
  3  4  1  0  0  0  0
  4  5  1  0  0  0  0
  5  6  1  0  0  0  0
  7  1  1  0  0  0  0
  6  7  1  0  0  0  0
  8  9  2  0  0  0  0
 10 11  1  0  0  0  0
  8 13  1  0  0  0  0
  9 12  1  0  0  0  0
 12 10  2  0  0  0  0
 11 13  2  0  0  0  0
 10 14  1  0  0  0  0
 14 15  1  0  0  0  0
 15 16  1  0  0  0  0
 14 17  2  0  0  0  0
 14 18  2  0  0  0  0
 16 19  2  0  0  0  0
 16 20  1  0  0  0  0
 20  1  1  0  0  0  0
 20 21  1  0  0  0  0
 15 22  1  0  0  0  0
  8 23  1  0  0  0  0
  2 24  1  0  0  0  0
  2 25  1  0  0  0  0
  3 26  1  0  0  0  0
  3 27  1  0  0  0  0
  4 28  1  0  0  0  0
  4 29  1  0  0  0  0
  5 30  1  0  0  0  0
  5 31  1  0  0  0  0
  6 32  1  0  0  0  0
  6 33  1  0  0  0  0
  7 34  1  0  0  0  0
  7 35  1  0  0  0  0
  9 36  1  0  0  0  0
 11 37  1  0  0  0  0
 12 38  1  0  0  0  0
 13 39  1  0  0  0  0
 23 40  1  0  0  0  0
 23 41  1  0  0  0  0
 23 42  1  0  0  0  0
M  END
>  <Substance ID> (141)
141

>  <Mouse_Female_Canc> (141)
1

>  <SAL> (141)
3

>  <Rat_Male_Canc> (141)
1

>  <TD50_Rat> (141)
NP

>  <TD50_Mouse> (141)
NP

>  <Rat_Female_Canc> (141)
1

>  <Canc> (141)
1

>  <MolWeight> (141)
311.40

>  <Mouse_Male_Canc> (141)
1

>  <Mouse_Male_NTP> (141)
ND

>  <ChemName> (141)
Tolazamide

>  <Rat_Male_NTP> (141)
ND

>  <Reference> (141)
NTP51

>  <Formula> (141)
C14H21N3O3S

>  <SMILES> (141)
O=S(=O)(C1=CC=C(C=C1)C)NC(=O)NN2CCCCCC2

>  <Rat_Female_NTP> (141)
ND

>  <CAS> (141)
1156-19-0

>  <Mouse_Female_NTP> (141)
ND

>  <Synonyms> (141)
1-(hexahydro-1-azepinyl)-3-p-tolylsulfonylurea; 1-(hexahydro-1H-azepin-1-yl)-3-(p-tolylsulfonyl)urea; 4-(p-tolylsulfonyl)-1,1-hexamethylenesemicarbazide; N-(p-toluenesulfonyl)-N'-hexamethyleniminourea; N-(((hexahydro-1H-azepin-1-yl)amino)carbonyl)-4-methylbenzenesulfonamide; Tolamide; Tolinase; U 17835.

$$$$
142


 36 36  0  0  0  0  0  0  0  0999 V2000
   28.8855  -66.3313    0.5473 C   0  0  0  0  0  0  0  0  0  0  0  0
   29.7237  -67.3565    0.3763 C   0  0  0  0  0  0  0  0  0  0  0  0
   31.5370  -65.8605   -0.2166 C   0  0  0  0  0  0  0  0  0  0  0  0
   30.6143  -64.7428   -0.0006 C   0  0  0  0  0  0  0  0  0  0  0  0
   31.1220  -67.1120   -0.0317 C   0  0  0  0  0  0  0  0  0  0  0  0
   29.3547  -64.9656    0.3582 C   0  0  0  0  0  0  0  0  0  0  0  0
   33.1608  -65.4784   -0.8143 S   0  0  0  0  0  0  0  0  0  0  0  0
   34.5422  -66.3251    0.0109 N   0  0  0  0  0  0  0  0  0  0  0  0
   33.2980  -63.9695   -0.7367 O   0  0  0  0  0  0  0  0  0  0  0  0
   33.1708  -65.9034   -2.2744 O   0  0  0  0  0  0  0  0  0  0  0  0
   35.9160  -65.7036    0.0003 C   0  0  0  0  0  0  0  0  0  0  0  0
   34.4403  -67.3151    0.2905 H   0  0  0  0  0  0  0  0  0  0  0  0
   36.0702  -64.5557   -0.4230 O   0  0  0  0  0  0  0  0  0  0  0  0
   37.1074  -66.3703    0.4388 N   0  0  0  0  0  0  0  0  0  0  0  0
   37.1034  -67.3101    0.7761 H   0  0  0  0  0  0  0  0  0  0  0  0
   38.3412  -65.6183    0.3261 C   0  0  0  0  0  0  0  0  0  0  0  0
   39.5913  -66.5054    0.3130 C   0  0  0  0  0  0  0  0  0  0  0  0
   40.8124  -65.5792    0.0984 C   0  0  0  0  0  0  0  0  0  0  0  0
   42.1071  -66.4057    0.0299 C   0  0  0  0  0  0  0  0  0  0  0  0
   27.4542  -66.5763    0.9314 C   0  0  0  0  0  0  0  0  0  0  0  0
   29.4039  -68.2923    0.5249 H   0  0  0  0  0  0  0  0  0  0  0  0
   30.9357  -63.8040   -0.1244 H   0  0  0  0  0  0  0  0  0  0  0  0
   31.7501  -67.8781   -0.1676 H   0  0  0  0  0  0  0  0  0  0  0  0
   28.7302  -64.1972    0.4982 H   0  0  0  0  0  0  0  0  0  0  0  0
   38.3161  -65.0925   -0.5241 H   0  0  0  0  0  0  0  0  0  0  0  0
   38.4040  -64.9928    1.1038 H   0  0  0  0  0  0  0  0  0  0  0  0
   39.6773  -66.9879    1.1846 H   0  0  0  0  0  0  0  0  0  0  0  0
   39.5312  -67.1699   -0.4319 H   0  0  0  0  0  0  0  0  0  0  0  0
   40.6973  -65.0757   -0.7579 H   0  0  0  0  0  0  0  0  0  0  0  0
   40.8737  -64.9335    0.8595 H   0  0  0  0  0  0  0  0  0  0  0  0
   42.8863  -65.7945   -0.1088 H   0  0  0  0  0  0  0  0  0  0  0  0
   42.0510  -67.0515   -0.7316 H   0  0  0  0  0  0  0  0  0  0  0  0
   42.2273  -66.9093    0.8855 H   0  0  0  0  0  0  0  0  0  0  0  0
   26.9767  -65.7017    1.0154 H   0  0  0  0  0  0  0  0  0  0  0  0
   27.4214  -67.0588    1.8067 H   0  0  0  0  0  0  0  0  0  0  0  0
   27.0103  -67.1317    0.2282 H   0  0  0  0  0  0  0  0  0  0  0  0
  1  2  2  0  0  0  0
  3  4  1  0  0  0  0
  1  6  1  0  0  0  0
  2  5  1  0  0  0  0
  5  3  2  0  0  0  0
  4  6  2  0  0  0  0
  3  7  1  0  0  0  0
  7  8  1  0  0  0  0
  7  9  2  0  0  0  0
  7 10  2  0  0  0  0
  8 11  1  0  0  0  0
  8 12  1  0  0  0  0
 11 13  2  0  0  0  0
 11 14  1  0  0  0  0
 14 15  1  0  0  0  0
 14 16  1  0  0  0  0
 16 17  1  0  0  0  0
 17 18  1  0  0  0  0
 18 19  1  0  0  0  0
  1 20  1  0  0  0  0
  2 21  1  0  0  0  0
  4 22  1  0  0  0  0
  5 23  1  0  0  0  0
  6 24  1  0  0  0  0
 16 25  1  0  0  0  0
 16 26  1  0  0  0  0
 17 27  1  0  0  0  0
 17 28  1  0  0  0  0
 18 29  1  0  0  0  0
 18 30  1  0  0  0  0
 19 31  1  0  0  0  0
 19 32  1  0  0  0  0
 19 33  1  0  0  0  0
 20 34  1  0  0  0  0
 20 35  1  0  0  0  0
 20 36  1  0  0  0  0
M  END
>  <Substance ID> (142)
142

>  <Mouse_Female_Canc> (142)
1

>  <SAL> (142)
1

>  <Rat_Male_Canc> (142)
1

>  <TD50_Rat> (142)
NP

>  <TD50_Mouse> (142)
NP

>  <Rat_Female_Canc> (142)
1

>  <Canc> (142)
1

>  <MolWeight> (142)
270.35

>  <Mouse_Male_Canc> (142)
1

>  <Mouse_Male_NTP> (142)
ND

>  <ChemName> (142)
Tolbutamide

>  <Rat_Male_NTP> (142)
ND

>  <Reference> (142)
NTP31

>  <Formula> (142)
C12H18N2O3S

>  <SMILES> (142)
O=S(=O)(C1=CC=C(C=C1)C)NC(=O)NCCCC

>  <Rat_Female_NTP> (142)
ND

>  <CAS> (142)
64-77-7

>  <Mouse_Female_NTP> (142)
ND

>  <Synonyms> (142)
1-p-toluenesulfonyl-3-butylurea; 1-butyl-3-(p-methylphenylsulfonyl)urea; 1-Butyl-3-(para-tolylsulfonyl) urea; 1-butyl-3-tosylurea; 3-(p-tolylsulfonyl)-1-butylurea; aglicid; arkozal; artosin; artozin; diaben; diabetol; diabetamid; diabuton; butamid; BZ 55; D 860; dolipol; drabet; hls 831; ipoglicone; mobenol; N-(p-tolylsulfonyl)-N'-butylcarbamide; N-(p-tolylsulfonyl)-N'-n-butylurea; N-((butylamino)carbonyl)-4-methylbenzenesulfonamide; N-butyl-N'-p-toluenesulfonylurea; N-butyl-N'-toluene-p-sulfonylurea; N-n-butyl-N'-tosylurea; orabet; oralin; Oramide; orezan; Orinase; orinaz; oterben; rastinon; sk-tolbutamide; tolbusal; TOLBUTAMIDE USP; toluina; tolumid; toluran; tolylsulfonylbutylurea; willbutamide.

$$$$
143
 

 26 25  0  0  0  0  0  0  0  0999 V2000
   13.1678  -12.0936   -0.0003 C   0  0  0  0  0  0  0  0  0  0  0  0
   13.1743  -13.4253   -0.0003 C   0  0  0  0  0  0  0  0  0  0  0  0
   14.4453  -14.1513    0.0005 C   0  0  0  0  0  0  0  0  0  0  0  0
   15.5948  -13.4795    0.0004 C   0  0  0  0  0  0  0  0  0  0  0  0
   15.5878  -12.0155    0.0003 C   0  0  0  0  0  0  0  0  0  0  0  0
   14.4315  -11.3552    0.0002 C   0  0  0  0  0  0  0  0  0  0  0  0
   14.4232   -9.8548    0.0004 C   0  0  0  0  0  0  0  0  0  0  0  0
   16.7937  -11.3117    0.0004 N   0  0  0  0  0  0  0  0  0  0  0  0
   11.9695  -14.1296    0.0005 N   0  0  0  0  0  0  0  0  0  0  0  0
   12.2992  -11.5980   -0.0006 H   0  0  0  0  0  0  0  0  0  0  0  0
   14.4502  -15.1513    0.0010 H   0  0  0  0  0  0  0  0  0  0  0  0
   16.4633  -13.9751    0.0004 H   0  0  0  0  0  0  0  0  0  0  0  0
   13.4788   -9.5263    0.0003 H   0  0  0  0  0  0  0  0  0  0  0  0
   14.8928   -9.5183   -0.8158 H   0  0  0  0  0  0  0  0  0  0  0  0
   14.8925   -9.5186    0.8170 H   0  0  0  0  0  0  0  0  0  0  0  0
   16.7890  -10.3117    0.0003 H   0  0  0  0  0  0  0  0  0  0  0  0
   17.6620  -11.8076    0.0006 H   0  0  0  0  0  0  0  0  0  0  0  0
   11.9749  -15.1295    0.0005 H   0  0  0  0  0  0  0  0  0  0  0  0
   11.1008  -13.6343    0.0011 H   0  0  0  0  0  0  0  0  0  0  0  0
   20.0099  -16.0090   -0.0021 S   0  0  0  0  0  0  0  0  0  0  0  0
   21.3541  -15.9787    1.0382 O   0  0  0  0  0  0  0  0  0  0  0  0
   20.0510  -14.7995   -0.9167 O   0  0  0  0  0  0  0  0  0  0  0  0
   18.7345  -15.9792    0.8187 O   0  0  0  0  0  0  0  0  0  0  0  0
   20.0490  -17.4282   -0.9372 O   0  0  0  0  0  0  0  0  0  0  0  0
   21.3275  -16.7759    1.6413 H   0  0  0  0  0  0  0  0  0  0  0  0
   19.2585  -17.4464   -1.5493 H   0  0  0  0  0  0  0  0  0  0  0  0
  1  2  2  0  0  0  0
  2  3  1  0  0  0  0
  3  4  2  0  0  0  0
  4  5  1  0  0  0  0
  5  6  2  0  0  0  0
  6  1  1  0  0  0  0
  6  7  1  0  0  0  0
  5  8  1  0  0  0  0
  2  9  1  0  0  0  0
  1 10  1  0  0  0  0
  3 11  1  0  0  0  0
  4 12  1  0  0  0  0
  7 13  1  0  0  0  0
  7 14  1  0  0  0  0
  7 15  1  0  0  0  0
  8 16  1  0  0  0  0
  8 17  1  0  0  0  0
  9 18  1  0  0  0  0
  9 19  1  0  0  0  0
 20 21  1  0  0  0  0
 20 22  2  0  0  0  0
 20 23  2  0  0  0  0
 20 24  1  0  0  0  0
 21 25  1  0  0  0  0
 24 26  1  0  0  0  0
M  END
>  <Substance ID> (143)
143

>  <Mouse_Female_Canc> (143)
1

>  <SAL> (143)
3

>  <Rat_Male_Canc> (143)
1

>  <TD50_Rat> (143)
NP

>  <TD50_Mouse> (143)
NP

>  <Rat_Female_Canc> (143)
1

>  <Canc> (143)
1

>  <MolWeight> (143)
220.23

>  <Mouse_Male_Canc> (143)
1

>  <Mouse_Male_NTP> (143)
ND

>  <ChemName> (143)
2,5-Toluenediamine Sulfate 

>  <Rat_Male_NTP> (143)
ND

>  <Reference> (143)
NTP126

>  <Formula> (143)
C7H12N2O4S1 

>  <SMILES> (143)
OS(O)(=O)=O.Nc1ccc(N)c(c1)C

>  <Rat_Female_NTP> (143)
ND

>  <CAS> (143)
6369-59-1

>  <Mouse_Female_NTP> (143)
ND

>  <Synonyms> (143)
2,5-TDS; 2-methyl-1,4-Benzenediamine sulfate; 2-methyl-p-phenylenediamine sulfate; para, meta-tolylenediamine sulfate; para-Toluenediamine sulfate; C.I. 76043; C.I. oxidation base 4; fouramine std; oxidation base 14; toluene-2,5-diamine sulfate; toluylene-2,5-diamine sulfate.

$$$$
144


 32 31  0  0  0  0  0  0  0  0999 V2000
   36.0532  -84.8447   -0.0403 N   0  0  0  0  0  0  0  0  0  0  0  0
   35.5773  -83.5922   -0.6479 C   0  0  0  0  0  0  0  0  0  0  0  0
   35.4209  -85.9993   -0.7123 C   0  0  0  0  0  0  0  0  0  0  0  0
   37.5644  -84.7920   -0.2711 C   0  0  0  0  0  0  0  0  0  0  0  0
   34.0627  -83.3438   -0.6651 C   0  0  0  0  0  0  0  0  0  0  0  0
   35.2084  -87.1311    0.2642 C   0  0  0  0  0  0  0  0  0  0  0  0
   33.6699  -82.1713   -0.7662 O   0  0  0  0  0  0  0  0  0  0  0  0
   34.7674  -88.2209   -0.1330 O   0  0  0  0  0  0  0  0  0  0  0  0
   33.1030  -84.3336   -0.6341 O   0  5  0  0  0  0  0  0  0  0  0  0
   35.5082  -86.9594    1.6207 O   0  5  0  0  0  0  0  0  0  0  0  0
   38.4101  -85.9578    0.3215 C   0  0  0  0  0  0  0  0  0  0  0  0
   39.9205  -85.8738    0.0804 N   0  0  0  0  0  0  0  0  0  0  0  0
   40.5140  -84.6458    0.6418 C   0  0  0  0  0  0  0  0  0  0  0  0
   40.4594  -87.0692    0.7602 C   0  0  0  0  0  0  0  0  0  0  0  0
   40.7458  -83.6340   -0.4637 C   0  0  0  0  0  0  0  0  0  0  0  0
   41.1808  -82.5074   -0.1982 O   0  0  0  0  0  0  0  0  0  0  0  0
   40.4561  -83.9674   -1.7958 O   0  5  0  0  0  0  0  0  0  0  0  0
   41.9914  -87.2302    0.8239 C   0  0  0  0  0  0  0  0  0  0  0  0
   42.4645  -88.3650    0.7414 O   0  0  0  0  0  0  0  0  0  0  0  0
   42.8664  -86.1826    1.0755 O   0  5  0  0  0  0  0  0  0  0  0  0
   35.9989  -82.8368   -0.1462 H   0  0  0  0  0  0  0  0  0  0  0  0
   35.8934  -83.5805   -1.5966 H   0  0  0  0  0  0  0  0  0  0  0  0
   34.5373  -85.7181   -1.0867 H   0  0  0  0  0  0  0  0  0  0  0  0
   36.0135  -86.3125   -1.4544 H   0  0  0  0  0  0  0  0  0  0  0  0
   37.7185  -84.7793   -1.2590 H   0  0  0  0  0  0  0  0  0  0  0  0
   37.9014  -83.9404    0.1303 H   0  0  0  0  0  0  0  0  0  0  0  0
   38.2576  -85.9761    1.3097 H   0  0  0  0  0  0  0  0  0  0  0  0
   38.0817  -86.8114   -0.0828 H   0  0  0  0  0  0  0  0  0  0  0  0
   39.8919  -84.2576    1.3216 H   0  0  0  0  0  0  0  0  0  0  0  0
   41.3868  -84.8680    1.0763 H   0  0  0  0  0  0  0  0  0  0  0  0
   40.1217  -87.0547    1.7013 H   0  0  0  0  0  0  0  0  0  0  0  0
   40.0947  -87.8711    0.2869 H   0  0  0  0  0  0  0  0  0  0  0  0
  1  2  1  0  0  0  0
  1  3  1  0  0  0  0
  1  4  1  0  0  0  0
  2  5  1  0  0  0  0
  3  6  1  0  0  0  0
  5  7  2  0  0  0  0
  6  8  2  0  0  0  0
  5  9  1  0  0  0  0
  6 10  1  0  0  0  0
  4 11  1  0  0  0  0
 11 12  1  0  0  0  0
 12 13  1  0  0  0  0
 12 14  1  0  0  0  0
 13 15  1  0  0  0  0
 15 16  2  0  0  0  0
 15 17  1  0  0  0  0
 18 19  2  0  0  0  0
 14 18  1  0  0  0  0
 18 20  1  0  0  0  0
  2 21  1  0  0  0  0
  2 22  1  0  0  0  0
  3 23  1  0  0  0  0
  3 24  1  0  0  0  0
  4 25  1  0  0  0  0
  4 26  1  0  0  0  0
 11 27  1  0  0  0  0
 11 28  1  0  0  0  0
 13 29  1  0  0  0  0
 13 30  1  0  0  0  0
 14 31  1  0  0  0  0
 14 32  1  0  0  0  0
M  END
>  <Substance ID> (144)
144

>  <Mouse_Female_Canc> (144)
1

>  <SAL> (144)
1

>  <Rat_Male_Canc> (144)
1

>  <TD50_Rat> (144)
NP

>  <TD50_Mouse> (144)
NP

>  <Rat_Female_Canc> (144)
1

>  <Canc> (144)
1

>  <MolWeight> (144)
358.19

>  <Mouse_Male_Canc> (144)
1

>  <Mouse_Male_NTP> (144)
ND

>  <ChemName> (144)
Trisodium Ethylenediaminetetraacetate

>  <Rat_Male_NTP> (144)
ND

>  <Reference> (144)
NTP11

>  <Formula> (144)
C10H13N2O8Na3 

>  <SMILES> (144)
OC(=O)CN(CCN(CC(=O)(O[Na]))CC(=O)(O[Na]))CC(=O)(O[Na])

>  <Rat_Female_NTP> (144)
ND

>  <CAS> (144)
150-38-9

>  <Mouse_Female_NTP> (144)
ND

>  <Synonyms> (144)
EDTA, trisodium salt; Ethanediylbis(N-(carboxymethyl)glycine) trisodium salt; ethylenediaminetetraacetic acid, trisodium salt; Ethylenediaminetetraacetic acid, trisodium salt monohydrate; hamp-ene na3 t; nevanaid-b; N,N'-1,2-ethanediylbis(N-(carboxymethyl)glycine) trisodium salt; perma kleer 50, trisodium salt; sequestrene na3; sequestrene trisodium; trilon ao; trisodium edetate; trisodium hydrogen ethylenediaminetetraacetate; trisodium hydrogen (ethylenedinitrilo)tetraacetate; trisodium versenate; versene 9.

$$$$
145


 27 28  0  0  0  0  0  0  0  0999 V2000
    2.4952   -6.8672   -0.0144 C   0  0  0  0  0  0  0  0  0  0  0  0
    2.2800   -8.1755    0.1922 C   0  0  0  0  0  0  0  0  0  0  0  0
    3.4200   -9.1118    0.2395 C   0  0  0  0  0  0  0  0  0  0  0  0
    3.8770   -6.3554   -0.1912 C   0  0  0  0  0  0  0  0  0  0  0  0
    4.8658   -7.2401   -0.1307 C   0  0  0  0  0  0  0  0  0  0  0  0
    4.6305   -8.5961    0.0759 C   0  0  0  0  0  0  0  0  0  0  0  0
    5.8439   -9.2447    0.0644 N   0  0  0  0  0  0  0  0  0  0  0  0
    6.8869   -8.3022   -0.1648 C   0  0  0  0  0  0  0  0  0  0  0  0
    6.3315   -7.0845   -0.2727 C   0  0  0  0  0  0  0  0  0  0  0  0
    5.9736  -10.2215    0.1925 H   0  0  0  0  0  0  0  0  0  0  0  0
    7.1782   -5.8349   -0.5237 C   0  0  0  0  0  0  0  0  0  0  0  0
    6.8724   -4.5786    0.3374 C   0  0  1  0  0  0  0  0  0  0  0  0
    7.9271   -3.5389    0.0874 C   0  0  0  0  0  0  0  0  0  0  0  0
    9.1924   -3.9323   -0.3437 O   0  0  0  0  0  0  0  0  0  0  0  0
    7.6780   -2.3411    0.2615 O   0  0  0  0  0  0  0  0  0  0  0  0
    5.5345   -4.0004    0.1913 N   0  0  0  0  0  0  0  0  0  0  0  0
    1.7215   -6.2346   -0.0493 H   0  0  0  0  0  0  0  0  0  0  0  0
    1.3477   -8.5160    0.3140 H   0  0  0  0  0  0  0  0  0  0  0  0
    3.2854  -10.0914    0.3884 H   0  0  0  0  0  0  0  0  0  0  0  0
    4.0562   -5.3844   -0.3494 H   0  0  0  0  0  0  0  0  0  0  0  0
    7.8625   -8.5109   -0.2333 H   0  0  0  0  0  0  0  0  0  0  0  0
    8.1335   -6.0830   -0.3633 H   0  0  0  0  0  0  0  0  0  0  0  0
    7.0564   -5.5780   -1.4824 H   0  0  0  0  0  0  0  0  0  0  0  0
    6.8889   -4.8997    1.2843 H   0  0  0  0  0  0  0  0  0  0  0  0
    9.7707   -3.1252   -0.4619 H   0  0  0  0  0  0  0  0  0  0  0  0
    5.4488   -3.2023    0.7876 H   0  0  0  0  0  0  0  0  0  0  0  0
    4.8471   -4.6809    0.4453 H   0  0  0  0  0  0  0  0  0  0  0  0
  1  2  2  0  0  0  0
  1  4  1  0  0  0  0
  2  3  1  0  0  0  0
  3  6  2  0  0  0  0
  5  4  2  0  0  0  0
  5  6  1  0  0  0  0
  6  7  1  0  0  0  0
  7  8  1  0  0  0  0
  8  9  2  0  0  0  0
  9  5  1  0  0  0  0
  7 10  1  0  0  0  0
  9 11  1  0  0  0  0
 11 12  1  0  0  0  0
 12 13  1  0  0  0  0
 13 14  1  0  0  0  0
 13 15  2  0  0  0  0
 12 16  1  0  0  0  0
  1 17  1  0  0  0  0
  2 18  1  0  0  0  0
  3 19  1  0  0  0  0
  4 20  1  0  0  0  0
  8 21  1  0  0  0  0
 11 22  1  0  0  0  0
 11 23  1  0  0  0  0
 12 24  1  0  0  0  0
 14 25  1  0  0  0  0
 16 26  1  0  0  0  0
 16 27  1  0  0  0  0
M  END
>  <Substance ID> (145)
145

>  <Mouse_Female_Canc> (145)
1

>  <SAL> (145)
1

>  <Rat_Male_Canc> (145)
1

>  <TD50_Rat> (145)
NP

>  <TD50_Mouse> (145)
NP

>  <Rat_Female_Canc> (145)
1

>  <Canc> (145)
1

>  <MolWeight> (145)
204.23

>  <Mouse_Male_Canc> (145)
1

>  <Mouse_Male_NTP> (145)
ND

>  <ChemName> (145)
L-(-)-Tryptophane

>  <Rat_Male_NTP> (145)
ND

>  <Reference> (145)
NTP71

>  <Formula> (145)
C11H12N2O2

>  <SMILES> (145)
N[C@H](CC1=CNC2=C1C=CC=C2)C(=O)O

>  <Rat_Female_NTP> (145)
ND

>  <CAS> (145)
73-22-3

>  <Mouse_Female_NTP> (145)
ND

>  <Synonyms> (145)
2-amino-3-indol-3-ylpropionic acid; 2-amino-3-indolylpropanoic acid; 2-Amino-3-(lH-indol-3-yl)-propanoic acid; 3-indol-3-ylalanine; alpha'-amino-3-indolepropionic acid; alpha-amino-beta-(3-indolyl)-propionic acid; indole-3-alanine; L-alpha-amino-3-indolepropionic acid; L-alpha-aminoindole-3-propionic acid; L-beta-3-indolylalanine; L-TRP; L-TRYPTOPHAN SIGMA GRADE; L-TTP; Pacitron; (S)-(-)-Tryptophan; Trp; Tryptophan; W.

$$$$
146


 26 28  0  0  0  0  0  0  0  0999 V2000
    3.7402  -15.3429    0.0010 C   0  0  0  0  0  0  0  0  0  0  0  0
    3.7404  -16.6744   -0.0006 C   0  0  0  0  0  0  0  0  0  0  0  0
    5.0094  -17.4032   -0.0002 C   0  0  0  0  0  0  0  0  0  0  0  0
    5.0093  -14.6137    0.0005 C   0  0  0  0  0  0  0  0  0  0  0  0
    6.1583  -15.2865    0.0002 C   0  0  0  0  0  0  0  0  0  0  0  0
    6.1587  -16.7318    0.0006 C   0  0  0  0  0  0  0  0  0  0  0  0
    7.4305  -17.4360    0.0000 C   0  0  0  0  0  0  0  0  0  0  0  0
    7.4320  -14.5809    0.0006 C   0  0  0  0  0  0  0  0  0  0  0  0
    8.6934  -15.3403    0.0001 C   0  0  0  0  0  0  0  0  0  0  0  0
    8.6926  -16.6780   -0.0004 C   0  0  0  0  0  0  0  0  0  0  0  0
   11.1163  -16.7418   -0.0007 C   0  0  0  0  0  0  0  0  0  0  0  0
   11.1179  -15.2813   -0.0004 C   0  0  0  0  0  0  0  0  0  0  0  0
    9.9631  -17.4056    0.0002 C   0  0  0  0  0  0  0  0  0  0  0  0
    9.9651  -14.6149   -0.0005 C   0  0  0  0  0  0  0  0  0  0  0  0
   12.3283  -14.5844    0.0005 N   0  0  0  0  0  0  0  0  0  0  0  0
    7.4536  -13.3448    0.0006 O   0  0  0  0  0  0  0  0  0  0  0  0
    7.4529  -18.6715   -0.0004 O   0  0  0  0  0  0  0  0  0  0  0  0
    2.8747  -14.8420    0.0025 H   0  0  0  0  0  0  0  0  0  0  0  0
    2.8750  -17.1754   -0.0020 H   0  0  0  0  0  0  0  0  0  0  0  0
    5.0130  -18.4032   -0.0005 H   0  0  0  0  0  0  0  0  0  0  0  0
    5.0134  -13.6137    0.0004 H   0  0  0  0  0  0  0  0  0  0  0  0
   11.9817  -17.2428   -0.0017 H   0  0  0  0  0  0  0  0  0  0  0  0
    9.9642  -18.4056    0.0013 H   0  0  0  0  0  0  0  0  0  0  0  0
    9.9679  -13.6149   -0.0011 H   0  0  0  0  0  0  0  0  0  0  0  0
   12.3296  -13.5844    0.0008 H   0  0  0  0  0  0  0  0  0  0  0  0
   13.1937  -15.0854    0.0009 H   0  0  0  0  0  0  0  0  0  0  0  0
  1  2  2  0  0  0  0
  1  4  1  0  0  0  0
  2  3  1  0  0  0  0
  3  6  2  0  0  0  0
  5  4  2  0  0  0  0
  5  6  1  0  0  0  0
  5  8  1  0  0  0  0
  6  7  1  0  0  0  0
  7 10  1  0  0  0  0
  9  8  1  0  0  0  0
  9 10  2  0  0  0  0
 11 12  1  0  0  0  0
  9 14  1  0  0  0  0
 10 13  1  0  0  0  0
 13 11  2  0  0  0  0
 12 14  2  0  0  0  0
 12 15  1  0  0  0  0
  8 16  2  0  0  0  0
  7 17  2  0  0  0  0
  1 18  1  0  0  0  0
  2 19  1  0  0  0  0
  3 20  1  0  0  0  0
  4 21  1  0  0  0  0
 11 22  1  0  0  0  0
 13 23  1  0  0  0  0
 14 24  1  0  0  0  0
 15 25  1  0  0  0  0
 15 26  1  0  0  0  0
M  END
>  <Substance ID> (146)
146

>  <Mouse_Female_Canc> (146)
3

>  <SAL> (146)
3

>  <Rat_Male_Canc> (146)
3

>  <TD50_Rat> (146)
101

>  <TD50_Mouse> (146)
1190

>  <Rat_Female_Canc> (146)
ND

>  <Canc> (146)
3

>  <MolWeight> (146)
223.23

>  <Mouse_Male_Canc> (146)
3

>  <Mouse_Male_NTP> (146)
ND

>  <ChemName> (146)
2-Aminoanthraquinone 

>  <Rat_Male_NTP> (146)
ND

>  <Reference> (146)
NTP144

>  <Formula> (146)
C14H9NO2

>  <SMILES> (146)
O=C1C2=CC(=CC=C2C(=O)C3=C1C=CC=C3)N

>  <Rat_Female_NTP> (146)
ND

>  <CAS> (146)
117-79-3

>  <Mouse_Female_NTP> (146)
ND

>  <Synonyms> (146)
2-amino-9,10-Anthracenedione; 2-amino-9,10-anthraquinone; AAQ; aminoanthraquinone; beta-aminoanthraquinone; beta-anthraquinonylamine.

$$$$
147


 28 28  0  0  0  0  0  0  0  0999 V2000
    6.3429  -25.8380   -0.0138 C   0  0  0  0  0  0  0  0  0  0  0  0
    6.2596  -27.1695   -0.0120 C   0  0  0  0  0  0  0  0  0  0  0  0
    8.6786  -27.3910   -0.0006 C   0  0  0  0  0  0  0  0  0  0  0  0
    8.7350  -25.9476   -0.0025 C   0  0  0  0  0  0  0  0  0  0  0  0
    7.4750  -28.0135   -0.0042 C   0  0  0  0  0  0  0  0  0  0  0  0
    7.6514  -25.1835   -0.0075 C   0  0  0  0  0  0  0  0  0  0  0  0
    7.7139  -23.7348   -0.0050 N   0  0  0  0  0  0  0  0  0  0  0  0
    9.9175  -28.0426    0.0048 N   0  0  0  0  0  0  0  0  0  0  0  0
    7.2531  -29.4535   -0.0024 O   0  0  0  0  0  0  0  0  0  0  0  0
    8.8884  -22.8495    0.0076 C   0  0  0  0  0  0  0  0  0  0  0  0
    8.6837  -21.6323    0.0233 O   0  0  0  0  0  0  0  0  0  0  0  0
   10.3440  -23.3037    0.0028 C   0  0  0  0  0  0  0  0  0  0  0  0
    8.4072  -30.3163    0.0047 C   0  0  0  0  0  0  0  0  0  0  0  0
    7.9800  -31.7901    0.0057 C   0  0  0  0  0  0  0  0  0  0  0  0
    5.5091  -25.2860   -0.0194 H   0  0  0  0  0  0  0  0  0  0  0  0
    5.3595  -27.6050   -0.0160 H   0  0  0  0  0  0  0  0  0  0  0  0
    9.6316  -25.5047    0.0001 H   0  0  0  0  0  0  0  0  0  0  0  0
    6.8288  -23.2694   -0.0130 H   0  0  0  0  0  0  0  0  0  0  0  0
    9.9570  -29.0418    0.0064 H   0  0  0  0  0  0  0  0  0  0  0  0
   10.7632  -27.5089    0.0070 H   0  0  0  0  0  0  0  0  0  0  0  0
   10.9435  -22.5035    0.0138 H   0  0  0  0  0  0  0  0  0  0  0  0
   10.5229  -23.8423   -0.8206 H   0  0  0  0  0  0  0  0  0  0  0  0
   10.5216  -23.8638    0.8120 H   0  0  0  0  0  0  0  0  0  0  0  0
    8.9581  -30.1345   -0.8099 H   0  0  0  0  0  0  0  0  0  0  0  0
    8.9507  -30.1312    0.8234 H   0  0  0  0  0  0  0  0  0  0  0  0
    8.7925  -32.3731    0.0106 H   0  0  0  0  0  0  0  0  0  0  0  0
    7.4382  -31.9812   -0.8128 H   0  0  0  0  0  0  0  0  0  0  0  0
    7.4307  -31.9779    0.8200 H   0  0  0  0  0  0  0  0  0  0  0  0
  1  2  2  0  0  0  0
  3  4  1  0  0  0  0
  1  6  1  0  0  0  0
  2  5  1  0  0  0  0
  5  3  2  0  0  0  0
  4  6  2  0  0  0  0
  6  7  1  0  0  0  0
  3  8  1  0  0  0  0
  5  9  1  0  0  0  0
  7 10  1  0  0  0  0
 10 11  2  0  0  0  0
 10 12  1  0  0  0  0
  9 13  1  0  0  0  0
 13 14  1  0  0  0  0
  1 15  1  0  0  0  0
  2 16  1  0  0  0  0
  4 17  1  0  0  0  0
  7 18  1  0  0  0  0
  8 19  1  0  0  0  0
  8 20  1  0  0  0  0
 12 21  1  0  0  0  0
 12 22  1  0  0  0  0
 12 23  1  0  0  0  0
 13 24  1  0  0  0  0
 13 25  1  0  0  0  0
 14 26  1  0  0  0  0
 14 27  1  0  0  0  0
 14 28  1  0  0  0  0
M  END
>  <Substance ID> (147)
147

>  <Mouse_Female_Canc> (147)
1

>  <SAL> (147)
3

>  <Rat_Male_Canc> (147)
1

>  <TD50_Rat> (147)
NP

>  <TD50_Mouse> (147)
2070

>  <Rat_Female_Canc> (147)
1

>  <Canc> (147)
3

>  <MolWeight> (147)
194.23

>  <Mouse_Male_Canc> (147)
3

>  <Mouse_Male_NTP> (147)
ND

>  <ChemName> (147)
3'-Amino-4'-Ethoxyacetanilide 

>  <Rat_Male_NTP> (147)
ND

>  <Reference> (147)
NTP112

>  <Formula> (147)
C10H14N2O2

>  <SMILES> (147)
NC1=C(C=CC(=C1)NC(=O)C)OCC

>  <Rat_Female_NTP> (147)
ND

>  <CAS> (147)
17026-81-2

>  <Mouse_Female_NTP> (147)
ND

>  <Synonyms> (147)
N-(3-amino-4-ethoxyphenyl)acetamide.

$$$$
148


 30 32  0  0  0  0  0  0  0  0999 V2000
    3.9737  -35.2837   -0.0020 C   0  0  0  0  0  0  0  0  0  0  0  0
    4.4273  -36.5454    0.0020 C   0  0  0  0  0  0  0  0  0  0  0  0
    5.8831  -36.8147    0.0034 C   0  0  0  0  0  0  0  0  0  0  0  0
    4.9207  -34.1550   -0.0050 C   0  0  0  0  0  0  0  0  0  0  0  0
    6.2228  -34.4320   -0.0029 C   0  0  0  0  0  0  0  0  0  0  0  0
    6.6892  -35.7625    0.0009 C   0  0  0  0  0  0  0  0  0  0  0  0
    7.3869  -33.5787   -0.0052 N   0  0  0  0  0  0  0  0  0  0  0  0
    8.5165  -34.4523   -0.0050 C   0  0  0  0  0  0  0  0  0  0  0  0
    8.1300  -35.7172    0.0005 C   0  0  0  0  0  0  0  0  0  0  0  0
   10.3732  -36.5148    0.0018 C   0  0  0  0  0  0  0  0  0  0  0  0
   10.8187  -35.0821   -0.0048 C   0  0  0  0  0  0  0  0  0  0  0  0
    9.0700  -36.8180    0.0043 C   0  0  0  0  0  0  0  0  0  0  0  0
    9.9215  -34.0884   -0.0074 C   0  0  0  0  0  0  0  0  0  0  0  0
   11.3248  -37.5381    0.0061 N   0  0  0  0  0  0  0  0  0  0  0  0
    7.5054  -32.0998   -0.0078 C   0  0  0  0  0  0  0  0  0  0  0  0
    6.1875  -31.2808    0.0204 C   0  0  0  0  0  0  0  0  0  0  0  0
    2.9892  -35.1082   -0.0029 H   0  0  0  0  0  0  0  0  0  0  0  0
    3.7798  -37.3075    0.0039 H   0  0  0  0  0  0  0  0  0  0  0  0
    6.2420  -37.7481    0.0062 H   0  0  0  0  0  0  0  0  0  0  0  0
    4.5952  -33.2095   -0.0085 H   0  0  0  0  0  0  0  0  0  0  0  0
   11.7954  -34.8673   -0.0074 H   0  0  0  0  0  0  0  0  0  0  0  0
    8.7576  -37.7679    0.0086 H   0  0  0  0  0  0  0  0  0  0  0  0
   10.2088  -33.1306   -0.0109 H   0  0  0  0  0  0  0  0  0  0  0  0
   11.0310  -38.4940    0.0105 H   0  0  0  0  0  0  0  0  0  0  0  0
   12.2994  -37.3146    0.0046 H   0  0  0  0  0  0  0  0  0  0  0  0
    8.0380  -31.8397    0.7976 H   0  0  0  0  0  0  0  0  0  0  0  0
    8.0030  -31.8398   -0.8353 H   0  0  0  0  0  0  0  0  0  0  0  0
    6.4014  -30.3040    0.0157 H   0  0  0  0  0  0  0  0  0  0  0  0
    5.6729  -31.5049    0.8480 H   0  0  0  0  0  0  0  0  0  0  0  0
    5.6379  -31.5050   -0.7844 H   0  0  0  0  0  0  0  0  0  0  0  0
  1  2  2  0  0  0  0
  1  4  1  0  0  0  0
  2  3  1  0  0  0  0
  3  6  2  0  0  0  0
  5  4  2  0  0  0  0
  5  6  1  0  0  0  0
  8  7  1  0  0  0  0
  7  5  1  0  0  0  0
  6  9  1  0  0  0  0
  8  9  2  0  0  0  0
 10 11  1  0  0  0  0
  8 13  1  0  0  0  0
  9 12  1  0  0  0  0
 12 10  2  0  0  0  0
 11 13  2  0  0  0  0
 10 14  1  0  0  0  0
  7 15  1  0  0  0  0
 15 16  1  0  0  0  0
  1 17  1  0  0  0  0
  2 18  1  0  0  0  0
  3 19  1  0  0  0  0
  4 20  1  0  0  0  0
 11 21  1  0  0  0  0
 12 22  1  0  0  0  0
 13 23  1  0  0  0  0
 14 24  1  0  0  0  0
 14 25  1  0  0  0  0
 15 26  1  0  0  0  0
 15 27  1  0  0  0  0
 16 28  1  0  0  0  0
 16 29  1  0  0  0  0
 16 30  1  0  0  0  0
M  END
>  <Substance ID> (148)
148

>  <Mouse_Female_Canc> (148)
3

>  <SAL> (148)
3

>  <Rat_Male_Canc> (148)
3

>  <TD50_Rat> (148)
57.2

>  <TD50_Mouse> (148)
38.6

>  <Rat_Female_Canc> (148)
3

>  <Canc> (148)
3

>  <MolWeight> (148)
210.28

>  <Mouse_Male_Canc> (148)
3

>  <Mouse_Male_NTP> (148)
ND

>  <ChemName> (148)
3-Amino-9-Ethylcarbazole

>  <Rat_Male_NTP> (148)
ND

>  <Reference> (148)
NTP93

>  <Formula> (148)
C14H14N2

>  <SMILES> (148)
c1cccc3c1c2c(ccc(N)c2)n3CC

>  <Rat_Female_NTP> (148)
ND

>  <CAS> (148)
132-32-1

>  <Mouse_Female_NTP> (148)
ND

>  <Synonyms> (148)
9H-Carbazol-3-amine, 9-ethyl.

$$$$
149


 29 31  0  0  0  0  0  0  0  0999 V2000
    2.5237  -45.4652   -0.0000 C   0  0  0  0  0  0  0  0  0  0  0  0
    2.5309  -46.7974   -0.0001 C   0  0  0  0  0  0  0  0  0  0  0  0
    3.8033  -47.5195   -0.0004 C   0  0  0  0  0  0  0  0  0  0  0  0
    3.7902  -44.7286    0.0002 C   0  0  0  0  0  0  0  0  0  0  0  0
    4.9425  -45.3959   -0.0003 C   0  0  0  0  0  0  0  0  0  0  0  0
    4.9486  -46.8409   -0.0005 C   0  0  0  0  0  0  0  0  0  0  0  0
    6.2236  -47.5384   -0.0001 C   0  0  0  0  0  0  0  0  0  0  0  0
    6.2139  -44.6862   -0.0000 C   0  0  0  0  0  0  0  0  0  0  0  0
    7.4787  -45.4398   -0.0003 C   0  0  0  0  0  0  0  0  0  0  0  0
    7.4817  -46.7778   -0.0002 C   0  0  0  0  0  0  0  0  0  0  0  0
    9.9053  -46.8373   -0.0009 C   0  0  0  0  0  0  0  0  0  0  0  0
    9.9053  -45.3755    0.0007 C   0  0  0  0  0  0  0  0  0  0  0  0
    8.7535  -47.5032   -0.0005 C   0  0  0  0  0  0  0  0  0  0  0  0
    8.7521  -44.7095    0.0006 C   0  0  0  0  0  0  0  0  0  0  0  0
    8.7574  -43.3133    0.0010 N   0  0  0  0  0  0  0  0  0  0  0  0
    6.2286  -43.4502    0.0002 O   0  0  0  0  0  0  0  0  0  0  0  0
    6.2502  -48.7742   -0.0001 O   0  0  0  0  0  0  0  0  0  0  0  0
   11.2059  -44.6252    0.0013 C   0  0  0  0  0  0  0  0  0  0  0  0
    1.6555  -44.9690   -0.0002 H   0  0  0  0  0  0  0  0  0  0  0  0
    1.6681  -47.3030    0.0000 H   0  0  0  0  0  0  0  0  0  0  0  0
    3.8127  -48.5195   -0.0005 H   0  0  0  0  0  0  0  0  0  0  0  0
    3.7893  -43.7286    0.0007 H   0  0  0  0  0  0  0  0  0  0  0  0
   10.7715  -47.3371   -0.0022 H   0  0  0  0  0  0  0  0  0  0  0  0
    8.7564  -48.5032   -0.0004 H   0  0  0  0  0  0  0  0  0  0  0  0
    9.6253  -42.8165    0.0016 H   0  0  0  0  0  0  0  0  0  0  0  0
    7.8933  -42.8100    0.0007 H   0  0  0  0  0  0  0  0  0  0  0  0
   11.0240  -43.6419    0.0024 H   0  0  0  0  0  0  0  0  0  0  0  0
   11.7304  -44.8658   -0.8154 H   0  0  0  0  0  0  0  0  0  0  0  0
   11.7306  -44.8675    0.8174 H   0  0  0  0  0  0  0  0  0  0  0  0
  1  2  2  0  0  0  0
  1  4  1  0  0  0  0
  2  3  1  0  0  0  0
  3  6  2  0  0  0  0
  5  4  2  0  0  0  0
  5  6  1  0  0  0  0
  5  8  1  0  0  0  0
  6  7  1  0  0  0  0
  7 10  1  0  0  0  0
  9  8  1  0  0  0  0
  9 10  2  0  0  0  0
 11 12  1  0  0  0  0
  9 14  1  0  0  0  0
 10 13  1  0  0  0  0
 13 11  2  0  0  0  0
 12 14  2  0  0  0  0
 14 15  1  0  0  0  0
  8 16  2  0  0  0  0
  7 17  2  0  0  0  0
 12 18  1  0  0  0  0
  1 19  1  0  0  0  0
  2 20  1  0  0  0  0
  3 21  1  0  0  0  0
  4 22  1  0  0  0  0
 11 23  1  0  0  0  0
 13 24  1  0  0  0  0
 15 25  1  0  0  0  0
 15 26  1  0  0  0  0
 18 27  1  0  0  0  0
 18 28  1  0  0  0  0
 18 29  1  0  0  0  0
M  END
>  <Substance ID> (149)
149

>  <Mouse_Female_Canc> (149)
3

>  <SAL> (149)
3

>  <Rat_Male_Canc> (149)
3

>  <TD50_Rat> (149)
59.2

>  <TD50_Mouse> (149)
174

>  <Rat_Female_Canc> (149)
3

>  <Canc> (149)
3

>  <MolWeight> (149)
237.26

>  <Mouse_Male_Canc> (149)
1

>  <Mouse_Male_NTP> (149)
ND

>  <ChemName> (149)
1-Amino-2-Methylanthraquinone 

>  <Rat_Male_NTP> (149)
ND

>  <Reference> (149)
NTP111

>  <Formula> (149)
C15H11NO2

>  <SMILES> (149)
O=C1C2=C(C(=CC=C2C(=O)C3=C1C=CC=C3)C)N

>  <Rat_Female_NTP> (149)
ND

>  <CAS> (149)
82-28-0

>  <Mouse_Female_NTP> (149)
ND

>  <Synonyms> (149)
1-Amino-2-methyl-9,10-Anthracenedione; 2-Methyl-1-anthraquinonylamine; Acetate Fast Orange R; acetoquinone light orange jl; artisil orange 3RP; disperse orange; celliton orange r; C.I. 60700; C.I. Disperse Orange 11; cilla orange r; duranol orange g; Fast Orange R; microsetile orange ra; nyloquinone orange jr; perliton orange 3R; serisol orange yl; supracet orange r.

$$$$
150


 17 17  0  0  0  0  0  0  0  0999 V2000
    5.9920  -55.3009   -0.0021 C   0  0  0  0  0  0  0  0  0  0
    5.9950  -56.6315   -0.0043 C   0  0  0  0  0  0  0  0  0  0
    8.4136  -56.6880    0.0008 C   0  0  0  0  0  0  0  0  0  0
    8.4158  -55.2192    0.0013 C   0  0  0  0  0  0  0  0  0  0
    7.2623  -57.3570   -0.0010 C   0  0  0  0  0  0  0  0  0  0
    7.2513  -54.5570    0.0011 C   0  0  0  0  0  0  0  0  0  0
    7.2060  -53.1628    0.0019 O   0  0  0  0  0  0  0  0  0  0
    7.2639  -58.7515    0.0000 N   0  0  0  0  0  0  0  0  0  0
    9.6510  -54.5415    0.0015 N   0  3  0  0  0  0  0  0  0  0
   10.7790  -55.2381   -0.0045 O   0  5  0  0  0  0  0  0  0  0
    9.6982  -53.3678    0.0048 O   0  0  0  0  0  0  0  0  0  0
    5.1229  -54.8062   -0.0027 H   0  0  0  0  0  0  0  0  0  0
    5.1304  -57.1341   -0.0082 H   0  0  0  0  0  0  0  0  0  0
    9.2799  -57.1875    0.0018 H   0  0  0  0  0  0  0  0  0  0
    8.1373  -52.7986    0.0041 H   0  0  0  0  0  0  0  0  0  0
    8.1305  -59.2505    0.0023 H   0  0  0  0  0  0  0  0  0  0
    6.3985  -59.2525   -0.0015 H   0  0  0  0  0  0  0  0  0  0
  1  2  2  0  0  0
  3  4  1  0  0  0
  1  6  1  0  0  0
  2  5  1  0  0  0
  5  3  2  0  0  0
  4  6  2  0  0  0
  6  7  1  0  0  0
  5  8  1  0  0  0
  9 10  1  0  0  0
  9 11  2  0  0  0
  4  9  1  0  0  0
  1 12  1  0  0  0
  2 13  1  0  0  0
  3 14  1  0  0  0
  7 15  1  0  0  0
  8 16  1  0  0  0
  8 17  1  0  0  0
M  END
>  <Substance ID> (150)
150

>  <Mouse_Female_Canc> (150)
1

>  <SAL> (150)
3

>  <Rat_Male_Canc> (150)
3

>  <TD50_Rat> (150)
309

>  <TD50_Mouse> (150)
NP

>  <Rat_Female_Canc> (150)
2

>  <Canc> (150)
3

>  <MolWeight> (150)
154.13

>  <Mouse_Male_Canc> (150)
1

>  <Mouse_Male_NTP> (150)
ND

>  <ChemName> (150)
4-Amino-2-Nitrophenol 

>  <Rat_Male_NTP> (150)
ND

>  <Reference> (150)
NTP94

>  <Formula> (150)
C6H6N2O3

>  <SMILES> (150)
OC1=C(C=C(C=C1)N)[N+](=O)[O-]

>  <Rat_Female_NTP> (150)
ND

>  <CAS> (150)
119-34-6

>  <Mouse_Female_NTP> (150)
ND

>  <Synonyms> (150)
o-nitro-p-aminophenol; 3-nitro-4-hydroxyaniline; p-Aminonitrophenol; 4-hydroxy-3-nitroaniline; C.I. 76555; C.I. oxidation base 25; fourrine 57; fourrine brown pr; fourrine brown propyl; oxidation base 25.

$$$$
151


 12 12  0  0  0  0  0  0  0  0999 V2000
    6.1439  -63.8107   -0.0010 S   0  0  0  0  0  0  0  0  0  0  0  0
    4.8967  -65.0100   -0.0003 C   0  0  0  0  0  0  0  0  0  0  0  0
    5.4054  -66.2441   -0.0005 C   0  0  0  0  0  0  0  0  0  0  0  0
    6.8516  -66.2425   -0.0005 N   0  0  0  0  0  0  0  0  0  0  0  0
    7.3541  -65.0659    0.0002 C   0  0  0  0  0  0  0  0  0  0  0  0
    8.7285  -64.8156    0.0015 N   0  0  0  0  0  0  0  0  0  0  0  0
    3.5300  -64.7229    0.0007 N   0  3  0  0  0  0  0  0  0  0  0  0
    3.1161  -63.4646   -0.0003 O   0  5  0  0  0  0  0  0  0  0  0  0
    2.7447  -65.5983    0.0009 O   0  0  0  0  0  0  0  0  0  0  0  0
    4.8496  -67.0755   -0.0007 H   0  0  0  0  0  0  0  0  0  0  0  0
    9.0652  -63.8740    0.0020 H   0  0  0  0  0  0  0  0  0  0  0  0
    9.3756  -65.5780    0.0021 H   0  0  0  0  0  0  0  0  0  0  0  0
  2  3  2  0  0  0  0
  1  2  1  0  0  0  0
  3  4  1  0  0  0  0
  4  5  2  0  0  0  0
  5  1  1  0  0  0  0
  5  6  1  0  0  0  0
  7  8  1  0  0  0  0
  7  9  2  0  0  0  0
  2  7  1  0  0  0  0
  3 10  1  0  0  0  0
  6 11  1  0  0  0  0
  6 12  1  0  0  0  0
M  END
>  <Substance ID> (151)
151

>  <Mouse_Female_Canc> (151)
1

>  <SAL> (151)
3

>  <Rat_Male_Canc> (151)
3

>  <TD50_Rat> (151)
44.6

>  <TD50_Mouse> (151)
NP

>  <Rat_Female_Canc> (151)
1

>  <Canc> (151)
3

>  <MolWeight> (151)
145.14

>  <Mouse_Male_Canc> (151)
1

>  <Mouse_Male_NTP> (151)
ND

>  <ChemName> (151)
2-Amino-5-Nitrothiazole 

>  <Rat_Male_NTP> (151)
ND

>  <Reference> (151)
NTP53

>  <Formula> (151)
C3H3N3O2S

>  <SMILES> (151)
O=[N+](C1=CN=C(S1)N)[O-]

>  <Rat_Female_NTP> (151)
ND

>  <CAS> (151)
121-66-4

>  <Mouse_Female_NTP> (151)
ND

>  <Synonyms> (151)
5-nitro-2-aminothiazole; 5-nitro-2-thiazolamine; 5-nitro-2-thiazolylamine; aminonitrothiazole; aminonitrothiazolum; aminzol soluble; amnizol soluble; enheptin; enheptin premix; enheptin-t; Enheptyne; entramin; nitramin ido; nitromin ido.

$$$$
152


 14 14  0  0  0  0  0  0  0  0999 V2000
    4.6007  -73.0237   -0.0004 C   0  0  0  0  0  0  0  0  0  0  0  0
    4.6078  -74.3558   -0.0003 C   0  0  0  0  0  0  0  0  0  0  0  0
    7.0312  -74.4095    0.0003 C   0  0  0  0  0  0  0  0  0  0  0  0
    7.0233  -72.9442    0.0002 C   0  0  0  0  0  0  0  0  0  0  0  0
    5.8810  -75.0816    0.0001 C   0  0  0  0  0  0  0  0  0  0  0  0
    5.8660  -72.2845   -0.0002 C   0  0  0  0  0  0  0  0  0  0  0  0
    5.8585  -70.8890   -0.0003 N   0  0  0  0  0  0  0  0  0  0  0  0
    3.7321  -72.5282   -0.0007 H   0  0  0  0  0  0  0  0  0  0  0  0
    3.7445  -74.8604   -0.0005 H   0  0  0  0  0  0  0  0  0  0  0  0
    7.8998  -74.9049    0.0006 H   0  0  0  0  0  0  0  0  0  0  0  0
    7.8866  -72.4395    0.0005 H   0  0  0  0  0  0  0  0  0  0  0  0
    5.8863  -76.0816    0.0003 H   0  0  0  0  0  0  0  0  0  0  0  0
    6.7218  -70.3844   -0.0002 H   0  0  0  0  0  0  0  0  0  0  0  0
    4.9898  -70.3936   -0.0005 H   0  0  0  0  0  0  0  0  0  0  0  0
  1  2  2  0  0  0  0
  3  4  1  0  0  0  0
  1  6  1  0  0  0  0
  2  5  1  0  0  0  0
  5  3  2  0  0  0  0
  4  6  2  0  0  0  0
  6  7  1  0  0  0  0
  1  8  1  0  0  0  0
  2  9  1  0  0  0  0
  3 10  1  0  0  0  0
  4 11  1  0  0  0  0
  5 12  1  0  0  0  0
  7 13  1  0  0  0  0
  7 14  1  0  0  0  0
M  END
>  <Substance ID> (152)
152

>  <Mouse_Female_Canc> (152)
1

>  <SAL> (152)
1

>  <Rat_Male_Canc> (152)
3

>  <TD50_Rat> (152)
269

>  <TD50_Mouse> (152)
NP

>  <Rat_Female_Canc> (152)
3

>  <Canc> (152)
3

>  <MolWeight> (152)
129.59

>  <Mouse_Male_Canc> (152)
1

>  <Mouse_Male_NTP> (152)
ND

>  <ChemName> (152)
Aniline Hydrochloride

>  <Rat_Male_NTP> (152)
ND

>  <Reference> (152)
NTP130

>  <Formula> (152)
C6H8ClN

>  <SMILES> (152)
Nc1ccccc1.Cl

>  <Rat_Female_NTP> (152)
ND

>  <CAS> (152)
142-04-1

>  <Mouse_Female_NTP> (152)
ND

>  <Synonyms> (152)
Anilinium Chloride; aniline chloride; Benzenamine hydrochloride; C.I. 76001; hydrochloride benzenamine; phenylamine hydrochloride.

$$$$
153


 18 18  0  0  0  0  0  0  0  0999 V2000
    4.2519  -86.5190   -0.0026 C   0  0  0  0  0  0  0  0  0  0  0  0
    4.2238  -87.8484   -0.0030 C   0  0  0  0  0  0  0  0  0  0  0  0
    6.6267  -87.9560    0.0001 C   0  0  0  0  0  0  0  0  0  0  0  0
    6.6823  -86.4867    0.0007 C   0  0  0  0  0  0  0  0  0  0  0  0
    5.4641  -88.5994   -0.0016 C   0  0  0  0  0  0  0  0  0  0  0  0
    5.5248  -85.7770   -0.0005 C   0  0  0  0  0  0  0  0  0  0  0  0
    5.3943  -84.3296   -0.0003 O   0  0  0  0  0  0  0  0  0  0  0  0
    7.9613  -85.9111    0.0026 N   0  0  0  0  0  0  0  0  0  0  0  0
    6.5820  -83.5246    0.0015 C   0  0  0  0  0  0  0  0  0  0  0  0
    3.3901  -86.0117   -0.0038 H   0  0  0  0  0  0  0  0  0  0  0  0
    3.3475  -88.3301   -0.0042 H   0  0  0  0  0  0  0  0  0  0  0  0
    7.4784  -88.4800    0.0010 H   0  0  0  0  0  0  0  0  0  0  0  0
    5.4446  -89.5992   -0.0020 H   0  0  0  0  0  0  0  0  0  0  0  0
    8.0619  -84.9162    0.0031 H   0  0  0  0  0  0  0  0  0  0  0  0
    8.7726  -86.4956    0.0035 H   0  0  0  0  0  0  0  0  0  0  0  0
    6.3295  -82.5571    0.0014 H   0  0  0  0  0  0  0  0  0  0  0  0
    7.1239  -83.7273   -0.8142 H   0  0  0  0  0  0  0  0  0  0  0  0
    7.1217  -83.7277    0.8186 H   0  0  0  0  0  0  0  0  0  0  0  0
  1  2  2  0  0  0  0
  3  4  1  0  0  0  0
  1  6  1  0  0  0  0
  2  5  1  0  0  0  0
  5  3  2  0  0  0  0
  4  6  2  0  0  0  0
  6  7  1  0  0  0  0
  4  8  1  0  0  0  0
  7  9  1  0  0  0  0
  1 10  1  0  0  0  0
  2 11  1  0  0  0  0
  3 12  1  0  0  0  0
  5 13  1  0  0  0  0
  8 14  1  0  0  0  0
  8 15  1  0  0  0  0
  9 16  1  0  0  0  0
  9 17  1  0  0  0  0
  9 18  1  0  0  0  0
M  END
>  <Substance ID> (153)
153

>  <Mouse_Female_Canc> (153)
3

>  <SAL> (153)
3

>  <Rat_Male_Canc> (153)
3

>  <TD50_Rat> (153)
29.7

>  <TD50_Mouse> (153)
966

>  <Rat_Female_Canc> (153)
3

>  <Canc> (153)
3

>  <MolWeight> (153)
123.15

>  <Mouse_Male_Canc> (153)
3

>  <Mouse_Male_NTP> (153)
ND

>  <ChemName> (153)
2-Anisidine Hydrochloride

>  <Rat_Male_NTP> (153)
ND

>  <Reference> (153)
NTP89

>  <Formula> (153)
C7H9NO

>  <SMILES> (153)
C1(=C(C=CC=C1)N)OC

>  <Rat_Female_NTP> (153)
ND

>  <CAS> (153)
134-29-2

>  <Mouse_Female_NTP> (153)
ND

>  <Synonyms> (153)
1-Amino-2-Methoxybenzene Hydrochloride; o-aminoanisole hydrochloride; o-anisylamine hydrochloride; 2-methoxy-1-aminobenzene hydrochloride; 2-Methoxybenzenamine, Hydrochloride; o-methoxyphenylamine hydrochloride; C.I. 37115; fast red bb base.

$$$$
154


 31 32  0  0  0  0  0  0  0  0999 V2000
    3.4375  -87.5714    0.0665 C   0  0  0  0  0  0  0  0  0  0  0  0
    3.3606  -88.9016    0.0177 C   0  0  0  0  0  0  0  0  0  0  0  0
    4.5880  -89.7012    0.0111 C   0  0  0  0  0  0  0  0  0  0  0  0
    4.7492  -86.9160    0.1182 C   0  0  0  0  0  0  0  0  0  0  0  0
    5.8555  -87.6563    0.1133 C   0  0  0  0  0  0  0  0  0  0  0  0
    5.7665  -89.0862    0.0560 C   0  0  0  0  0  0  0  0  0  0  0  0
    6.9922  -89.8090    0.0428 C   0  0  0  0  0  0  0  0  0  0  0  0
    8.1763  -89.0742    0.0740 N   0  0  0  0  0  0  0  0  0  0  0  0
    8.1516  -87.7157    0.1496 N   0  0  0  0  0  0  0  0  0  0  0  0
    7.1224  -87.0577    0.1660 N   0  0  0  0  0  0  0  0  0  0  0  0
    7.0003  -91.0455   -0.0074 O   0  0  0  0  0  0  0  0  0  0  0  0
    9.4373  -89.7515   -0.0112 C   0  0  0  0  0  0  0  0  0  0  0  0
   10.7912  -88.5669    0.2351 S   0  0  0  0  0  0  0  0  0  0  0  0
   12.4128  -89.3466   -0.3354 P   0  0  0  0  0  0  0  0  0  0  0  0
   13.5789  -88.8586    0.6526 O   0  0  0  0  0  0  0  0  0  0  0  0
   12.0907  -90.8512   -0.7388 O   0  0  0  0  0  0  0  0  0  0  0  0
   12.5125  -88.4468   -1.7374 S   0  0  0  0  0  0  0  0  0  0  0  0
   14.4816  -89.7632    1.3338 C   0  0  0  0  0  0  0  0  0  0  0  0
   12.8049  -91.9766   -0.2037 C   0  0  0  0  0  0  0  0  0  0  0  0
    2.6025  -87.0213    0.0679 H   0  0  0  0  0  0  0  0  0  0  0  0
    2.4682  -89.3518   -0.0143 H   0  0  0  0  0  0  0  0  0  0  0  0
    4.5403  -90.6993   -0.0269 H   0  0  0  0  0  0  0  0  0  0  0  0
    4.8118  -85.9187    0.1569 H   0  0  0  0  0  0  0  0  0  0  0  0
    9.4825  -90.4583    0.6948 H   0  0  0  0  0  0  0  0  0  0  0  0
    9.5264  -90.1743   -0.9130 H   0  0  0  0  0  0  0  0  0  0  0  0
   15.1220  -89.2372    1.8933 H   0  0  0  0  0  0  0  0  0  0  0  0
   14.9905  -90.2978    0.6590 H   0  0  0  0  0  0  0  0  0  0  0  0
   13.9565  -90.3802    1.9200 H   0  0  0  0  0  0  0  0  0  0  0  0
   12.4377  -92.8211   -0.5935 H   0  0  0  0  0  0  0  0  0  0  0  0
   12.7004  -91.9961    0.7907 H   0  0  0  0  0  0  0  0  0  0  0  0
   13.7746  -91.8973   -0.4351 H   0  0  0  0  0  0  0  0  0  0  0  0
  1  2  2  0  0  0  0
  1  4  1  0  0  0  0
  2  3  1  0  0  0  0
  3  6  2  0  0  0  0
  5  4  2  0  0  0  0
  5  6  1  0  0  0  0
  5 10  1  0  0  0  0
  6  7  1  0  0  0  0
  7  8  1  0  0  0  0
  8  9  1  0  0  0  0
  9 10  2  0  0  0  0
  7 11  2  0  0  0  0
  8 12  1  0  0  0  0
 12 13  1  0  0  0  0
 13 14  1  0  0  0  0
 14 15  1  0  0  0  0
 14 16  1  0  0  0  0
 14 17  2  0  0  0  0
 15 18  1  0  0  0  0
 16 19  1  0  0  0  0
  1 20  1  0  0  0  0
  2 21  1  0  0  0  0
  3 22  1  0  0  0  0
  4 23  1  0  0  0  0
 12 24  1  0  0  0  0
 12 25  1  0  0  0  0
 18 26  1  0  0  0  0
 18 27  1  0  0  0  0
 18 28  1  0  0  0  0
 19 29  1  0  0  0  0
 19 30  1  0  0  0  0
 19 31  1  0  0  0  0
M  END
>  <Substance ID> (154)
154

>  <Mouse_Female_Canc> (154)
1

>  <SAL> (154)
3

>  <Rat_Male_Canc> (154)
2

>  <TD50_Rat> (154)
NP

>  <TD50_Mouse> (154)
NP

>  <Rat_Female_Canc> (154)
1

>  <Canc> (154)
2

>  <MolWeight> (154)
317.32

>  <Mouse_Male_Canc> (154)
1

>  <Mouse_Male_NTP> (154)
ND

>  <ChemName> (154)
Azinphos-Methyl

>  <Rat_Male_NTP> (154)
ND

>  <Reference> (154)
NTP69

>  <Formula> (154)
C10H12N3O3PS2

>  <SMILES> (154)
O=C1C2=C(C=CC=C2)N=NN1CSP(=S)(OC)OC

>  <Rat_Female_NTP> (154)
ND

>  <CAS> (154)
86-50-0

>  <Mouse_Female_NTP> (154)
ND

>  <Synonyms> (154)
O,O-dimethyl S-(1,2,3-benzotriazinyl-4-keto)methyl phosphorodithioate; O,O-dimethyl S-(3,4-dihydro-4-keto-1,2,3-benzotriazinyl-3-methyl) dithiophosphate; crysthion 2l; crysthyon; Crysthyon 2L; DBD; gothnion; Gusathion; gusathion-20; gusathion 25; gusathion k; Gusathion M; gusathion methyl; Gusthion M; guthion; GUTHION (AZINPHOS-METHYL); Guthion, Gusation; Guthion(R); Gution; Ketokil No. 52; methylazinphos; Methyl gusathion; Methyl guthion; metiltriazotion; N-methylbenzazimide, dimethyl dithiophosphoric acid ester; phosphorodithioic acid O,O-dimethyl ester, S-ester with 3-mercaptomethyl-1,2,3-benzotriazin-4(3H)-one; Phosphorodithioic acid O,O-dimethyl S-[(4-oxo-1,2,3-benzotriazin-3(4H)-yl)methyl] ester; R 1582; S-(3,4-dihydro-4-oxo-1,2,3-benzotriazin-3-ylmethyl) O,O-dimethyl phosphorodithioate; S-(3,4-dihydro-4-oxobenzo[d][1,2,3]triazin-3-ylmethyl) O,O-dimethyl phosphorodithioate; O,O-dimethyl S-4-oxo-1,2,3-benzotriazin-3(4H)-ylmethyl phosphorodithioate; O,O-dimethyl S-(4-oxo-1,2,3-benzotriazino(3)-methyl) thiothionophosphate; O,O-dimethyl S-(4-oxo-3H-1,2,3-benzotriazine-3-methyl) phosphorodithioate; O,O-dimethyl S-(4-oxobenzotriazino-3-methyl) phosphorodithioate; O,O-dimethyl S-(benzaziminomethyl) dithiophosphate; 3-(mercaptomethyl)-1,2,3-benzotriazin-4(3H)-one O,O-dimethyl phosphorodithioate; 3-(mercaptomethyl)-1,2,3-benzotriazin-4(3H)-one O,O-dimethyl phosphorodithioate S-ester; Azimil; azinophos-methyl; Azinphos-Me; Bay; bay 17147; bay 9027; Bayer 17147; bayer 9027; Beetle Buster; Dimethoxy ester of (4-oxo-1,2,3-benzotriazin-3(4H)-yl)methyl ester of dithiophosphoric acid; dimethyl dithiophosphoric acid N-methylbenzazimidyl ester; Dimethyl S-(3-(mercaptomethyl)-1,2,3-benzotriazin-4(3H)-one) phosphorodithioate; Dimethyl S-((4-oxo-1,2,3-benzotriazin-3(4H)-yl)methyl) phosphorodithioate; carfene; cotneon; Cotnion-methyl.

$$$$
155


 24 25  0  0  0  0  0  0  0  0999 V2000
   34.2597   -2.6800    0.0053 C   0  0  0  0  0  0  0  0  0  0  0  0
   34.7554   -3.9161   -0.0069 C   0  0  0  0  0  0  0  0  0  0  0  0
   37.0300   -3.0770   -0.0034 C   0  0  0  0  0  0  0  0  0  0  0  0
   36.4842   -1.7168    0.0091 C   0  0  0  0  0  0  0  0  0  0  0  0
   36.2058   -4.1236   -0.0113 C   0  0  0  0  0  0  0  0  0  0  0  0
   35.1651   -1.5284    0.0134 C   0  0  0  0  0  0  0  0  0  0  0  0
   38.4153   -3.2803   -0.0061 N   0  0  0  0  0  0  0  0  0  0  0  0
   39.1731   -2.3361    0.0055 N   0  0  0  0  0  0  0  0  0  0  0  0
   40.5571   -2.5503    0.0025 C   0  0  0  0  0  0  0  0  0  0  0  0
   41.0397   -3.7920   -0.0132 C   0  0  0  0  0  0  0  0  0  0  0  0
   43.3231   -2.9785   -0.0055 C   0  0  0  0  0  0  0  0  0  0  0  0
   42.7930   -1.6134    0.0122 C   0  0  0  0  0  0  0  0  0  0  0  0
   42.4882   -4.0162   -0.0174 C   0  0  0  0  0  0  0  0  0  0  0  0
   41.4764   -1.4093    0.0160 C   0  0  0  0  0  0  0  0  0  0  0  0
   33.2698   -2.5381    0.0089 H   0  0  0  0  0  0  0  0  0  0  0  0
   34.1377   -4.7026   -0.0131 H   0  0  0  0  0  0  0  0  0  0  0  0
   37.1017   -0.9302    0.0143 H   0  0  0  0  0  0  0  0  0  0  0  0
   36.5774   -5.0520   -0.0202 H   0  0  0  0  0  0  0  0  0  0  0  0
   34.7930   -0.6002    0.0221 H   0  0  0  0  0  0  0  0  0  0  0  0
   40.4134   -4.5715   -0.0220 H   0  0  0  0  0  0  0  0  0  0  0  0
   44.3113   -3.1314   -0.0088 H   0  0  0  0  0  0  0  0  0  0  0  0
   43.4196   -0.8341    0.0215 H   0  0  0  0  0  0  0  0  0  0  0  0
   42.8497   -4.9485   -0.0292 H   0  0  0  0  0  0  0  0  0  0  0  0
   41.1153   -0.4768    0.0280 H   0  0  0  0  0  0  0  0  0  0  0  0
  1  2  2  0  0  0  0
  3  4  1  0  0  0  0
  1  6  1  0  0  0  0
  2  5  1  0  0  0  0
  5  3  2  0  0  0  0
  4  6  2  0  0  0  0
  3  7  1  0  0  0  0
  7  8  2  0  0  0  0
  8  9  1  0  0  0  0
  9 10  2  0  0  0  0
 11 12  1  0  0  0  0
  9 14  1  0  0  0  0
 10 13  1  0  0  0  0
 13 11  2  0  0  0  0
 12 14  2  0  0  0  0
  1 15  1  0  0  0  0
  2 16  1  0  0  0  0
  4 17  1  0  0  0  0
  5 18  1  0  0  0  0
  6 19  1  0  0  0  0
 10 20  1  0  0  0  0
 11 21  1  0  0  0  0
 12 22  1  0  0  0  0
 13 23  1  0  0  0  0
 14 24  1  0  0  0  0
M  END
>  <Substance ID> (155)
155

>  <Mouse_Female_Canc> (155)
1

>  <SAL> (155)
3

>  <Rat_Male_Canc> (155)
3

>  <TD50_Rat> (155)
24.1

>  <TD50_Mouse> (155)
NP

>  <Rat_Female_Canc> (155)
3

>  <Canc> (155)
3

>  <MolWeight> (155)
182.22

>  <Mouse_Male_Canc> (155)
1

>  <Mouse_Male_NTP> (155)
ND

>  <ChemName> (155)
Azobenzene

>  <Rat_Male_NTP> (155)
ND

>  <Reference> (155)
NTP154

>  <Formula> (155)
C12H10N2

>  <SMILES> (155)
N(=N/c1ccccc1)\c2ccccc2

>  <Rat_Female_NTP> (155)
ND

>  <CAS> (155)
103-33-3

>  <Mouse_Female_NTP> (155)
ND

>  <Synonyms> (155)
1,2-Diphenyldiazene; azobenzide; azobenzol; azobisbenzene; azodibenzeneazofume; azofume; benzeneazobenzene; benzofume; diazobenzene; Diphenyldiazene; diphenyl diimide.

$$$$
156


 14 15  0  0  0  0  0  0  0  0999 V2000
   35.3272   -9.6343    0.0010 C   0  0  0  0  0  0  0  0  0  0  0  0
   35.5436  -10.9596   -0.0013 C   0  0  0  0  0  0  0  0  0  0  0  0
   36.9302  -11.4836   -0.0015 C   0  0  0  0  0  0  0  0  0  0  0  0
   36.4756   -8.7008    0.0018 C   0  0  0  0  0  0  0  0  0  0  0  0
   37.6824   -9.2496    0.0010 C   0  0  0  0  0  0  0  0  0  0  0  0
   37.9079  -10.5866    0.0003 C   0  0  0  0  0  0  0  0  0  0  0  0
   39.2949  -10.7875    0.0011 N   0  0  0  0  0  0  0  0  0  0  0  0
   39.8448   -9.6793    0.0009 N   0  0  0  0  0  0  0  0  0  0  0  0
   38.8992   -8.6791   -0.0003 N   0  0  0  0  0  0  0  0  0  0  0  0
   39.0844   -7.7017   -0.0045 H   0  0  0  0  0  0  0  0  0  0  0  0
   34.3924   -9.2791    0.0023 H   0  0  0  0  0  0  0  0  0  0  0  0
   34.7696  -11.5928   -0.0029 H   0  0  0  0  0  0  0  0  0  0  0  0
   37.1196  -12.4655   -0.0030 H   0  0  0  0  0  0  0  0  0  0  0  0
   36.3481   -7.7090    0.0028 H   0  0  0  0  0  0  0  0  0  0  0  0
  1  2  2  0  0  0  0
  1  4  1  0  0  0  0
  2  3  1  0  0  0  0
  3  6  2  0  0  0  0
  5  4  2  0  0  0  0
  5  6  1  0  0  0  0
  7  8  2  0  0  0  0
  8  9  1  0  0  0  0
  9  5  1  0  0  0  0
  6  7  1  0  0  0  0
  9 10  1  0  0  0  0
  1 11  1  0  0  0  0
  2 12  1  0  0  0  0
  3 13  1  0  0  0  0
  4 14  1  0  0  0  0
M  END
>  <Substance ID> (156)
156

>  <Mouse_Female_Canc> (156)
2

>  <SAL> (156)
3

>  <Rat_Male_Canc> (156)
2

>  <TD50_Rat> (156)
NP

>  <TD50_Mouse> (156)
NP

>  <Rat_Female_Canc> (156)
2

>  <Canc> (156)
2

>  <MolWeight> (156)
119.13

>  <Mouse_Male_Canc> (156)
1

>  <Mouse_Male_NTP> (156)
ND

>  <ChemName> (156)
1,2,3-Benzotriazole 

>  <Rat_Male_NTP> (156)
ND

>  <Reference> (156)
NTP88

>  <Formula> (156)
C6H5N3

>  <SMILES> (156)
N1C2=C(C=CC=C2)N=N1

>  <Rat_Female_NTP> (156)
ND

>  <CAS> (156)
95-14-7

>  <Mouse_Female_NTP> (156)
ND

>  <Synonyms> (156)
1,2,3-triaza-1H-indene; 1,2,3-triazaindene; 1,2-aminoazophenylene; 1H-benzotriazole; 2,3-diazaindole; Azimidobenzene; aziminobenzene; benzene azimide; Benzisotriazole; Benzotriazole; Cobratec 99; cobratec #99; U-6233.

$$$$
157


 14 13  0  0  0  0  0  0  0  0999 V2000
   34.7206  -17.4409   -0.0000 C   0  0  0  0  0  0  0  0  0  0  0  0
   35.9643  -16.5337    0.0002 C   0  0  0  0  0  0  0  0  0  0  0  0
   37.2340  -17.4041    0.0000 C   0  0  0  0  0  0  0  0  0  0  0  0
   38.4778  -16.4971    0.0002 C   0  0  0  0  0  0  0  0  0  0  0  0
   39.9349  -17.4960    0.0001 Cl  0  0  0  0  0  0  0  0  0  0  0  0
   33.8954  -16.8761    0.0001 H   0  0  0  0  0  0  0  0  0  0  0  0
   34.7286  -18.0185    0.8163 H   0  0  0  0  0  0  0  0  0  0  0  0
   34.7287  -18.0183   -0.8165 H   0  0  0  0  0  0  0  0  0  0  0  0
   35.9559  -15.9564   -0.8164 H   0  0  0  0  0  0  0  0  0  0  0  0
   35.9559  -15.9567    0.8169 H   0  0  0  0  0  0  0  0  0  0  0  0
   37.2424  -17.9813    0.8166 H   0  0  0  0  0  0  0  0  0  0  0  0
   37.2425  -17.9810   -0.8167 H   0  0  0  0  0  0  0  0  0  0  0  0
   38.4695  -15.9199   -0.8163 H   0  0  0  0  0  0  0  0  0  0  0  0
   38.4694  -15.9201    0.8169 H   0  0  0  0  0  0  0  0  0  0  0  0
  1  2  1  0  0  0  0
  2  3  1  0  0  0  0
  3  4  1  0  0  0  0
  4  5  1  0  0  0  0
  1  6  1  0  0  0  0
  1  7  1  0  0  0  0
  1  8  1  0  0  0  0
  2  9  1  0  0  0  0
  2 10  1  0  0  0  0
  3 11  1  0  0  0  0
  3 12  1  0  0  0  0
  4 13  1  0  0  0  0
  4 14  1  0  0  0  0
M  END
>  <Substance ID> (157)
157

>  <Mouse_Female_Canc> (157)
1

>  <SAL> (157)
1

>  <Rat_Male_Canc> (157)
1

>  <TD50_Rat> (157)
NP

>  <TD50_Mouse> (157)
NP

>  <Rat_Female_Canc> (157)
1

>  <Canc> (157)
1

>  <MolWeight> (157)
92.57

>  <Mouse_Male_Canc> (157)
1

>  <Mouse_Male_NTP> (157)
NE

>  <ChemName> (157)
n-Butyl Chloride 

>  <Rat_Male_NTP> (157)
NE

>  <Reference> (157)
NTP312

>  <Formula> (157)
C4H9Cl

>  <SMILES> (157)
CCCCCl

>  <Rat_Female_NTP> (157)
NE

>  <CAS> (157)
109-69-3

>  <Mouse_Female_NTP> (157)
NE

>  <Synonyms> (157)
1-Chlorobutane; butyl chloride; Chlorobutane, 1-; N-propylcarbinyl chloride.

$$$$
158


  4  3  0  0  0  0  0  0  0  0999 V2000
   33.5929  -23.1309   -0.0009 N   0  0  0  0  0  0  0  0  0  0  0  0
   34.5647  -22.5137    0.0005 C   0  0  0  0  0  0  0  0  0  0  0  0
   35.7342  -21.8192    0.0022 N   0  0  0  0  0  0  0  0  0  0  0  0
   37.5803  -22.8404   -0.0018 Ca  0  0  0  0  0  0  0  0  0  0  0  0
  1  2  3  0  0  0  0
  2  3  1  0  0  0  0
  3  4  2  0  0  0  0
M  END
>  <Substance ID> (158)
158

>  <Mouse_Female_Canc> (158)
1

>  <SAL> (158)
3

>  <Rat_Male_Canc> (158)
1

>  <TD50_Rat> (158)
NP

>  <TD50_Mouse> (158)
NP

>  <Rat_Female_Canc> (158)
1

>  <Canc> (158)
1

>  <MolWeight> (158)
80.10

>  <Mouse_Male_Canc> (158)
1

>  <Mouse_Male_NTP> (158)
ND

>  <ChemName> (158)
Calcium Cyanamide

>  <Rat_Male_NTP> (158)
ND

>  <Reference> (158)
NTP163

>  <Formula> (158)
C1N2Ca 

>  <SMILES> (158)
[Ca]=NC(#N)

>  <Rat_Female_NTP> (158)
ND

>  <CAS> (158)
156-62-7

>  <Mouse_Female_NTP> (158)
ND

>  <Synonyms> (158)
aero-cyanamid; Alzodef; Alzodex; Calcium Carbamide; Calcium Carbimide; Cyanamide, calcium; Cyanamide, Calcium Salt (1:1); Cyanamid pam-amd; cy-l 500; Lime Nitrogen; nitrogen lime; nitrolime; Temposil.

$$$$
159


 24 26  0  0  0  0  0  0  0  0999 V2000
   21.5405  -20.0660   -0.6676 C   0  0  0  0  0  0  0  0  0  0  0  0
   21.6538  -21.3537   -0.4438 C   0  0  0  0  0  0  0  0  0  0  0  0
   22.9108  -21.5795    0.3019 C   0  0  2  0  0  0  0  0  0  0  0  0
   22.4786  -17.6488    0.1152 Cl  0  0  0  0  0  0  0  0  0  0  0  0
   20.2353  -19.2946   -1.4943 Cl  0  0  0  0  0  0  0  0  0  0  0  0
   20.5263  -22.5715   -0.9208 Cl  0  0  0  0  0  0  0  0  0  0  0  0
   22.9631  -23.1539    1.0957 Cl  0  0  0  0  0  0  0  0  0  0  0  0
   22.8637  -20.2814    1.2079 C   0  0  0  0  0  0  0  0  0  0  0  0
   22.7261  -19.3860   -0.0804 C   0  0  2  0  0  0  0  0  0  0  0  0
   23.9296  -19.7782   -1.0964 C   0  0  2  0  0  0  0  0  0  0  0  0
   24.0830  -21.3640   -0.7914 C   0  0  2  0  0  0  0  0  0  0  0  0
   25.6228  -21.5023   -0.3841 C   0  0  0  0  0  0  0  0  0  0  0  0
   26.0307  -20.1275    0.1298 C   0  0  2  0  0  0  0  0  0  0  0  0
   25.4323  -19.3200   -0.9668 C   0  0  1  0  0  0  0  0  0  0  0  0
   27.7765  -19.9379    0.2898 Cl  0  0  0  0  0  0  0  0  0  0  0  0
   25.6266  -17.5727   -0.8178 Cl  0  0  0  0  0  0  0  0  0  0  0  0
   24.1954  -19.9688    2.3307 Cl  0  0  0  0  0  0  0  0  0  0  0  0
   21.3978  -20.2300    2.1885 Cl  0  0  0  0  0  0  0  0  0  0  0  0
   23.6368  -19.3528   -1.9527 H   0  0  0  0  0  0  0  0  0  0  0  0
   23.9487  -22.0718   -1.4850 H   0  0  0  0  0  0  0  0  0  0  0  0
   26.1734  -21.7558   -1.1794 H   0  0  0  0  0  0  0  0  0  0  0  0
   25.7345  -22.1908    0.3325 H   0  0  0  0  0  0  0  0  0  0  0  0
   25.7301  -19.8908    1.0537 H   0  0  0  0  0  0  0  0  0  0  0  0
   25.9362  -19.4991   -1.8119 H   0  0  0  0  0  0  0  0  0  0  0  0
  1  2  2  0  0  0  0
  1  9  1  0  0  0  0
  2  3  1  0  0  0  0
  3 11  1  0  0  0  0
 10  9  1  0  0  0  0
  9  4  1  0  0  0  0
  1  5  1  0  0  0  0
  2  6  1  0  0  0  0
  3  7  1  0  0  0  0
  3  8  1  0  0  0  0
  8  9  1  0  0  0  0
 10 11  1  0  0  0  0
 12 13  1  0  0  0  0
 13 14  1  0  0  0  0
 14 10  1  0  0  0  0
 11 12  1  0  0  0  0
 13 15  1  0  0  0  0
 14 16  1  0  0  0  0
  8 17  1  0  0  0  0
  8 18  1  0  0  0  0
 10 19  1  0  0  0  0
 11 20  1  0  0  0  0
 12 21  1  0  0  0  0
 12 22  1  0  0  0  0
 13 23  1  0  0  0  0
 14 24  1  0  0  0  0
M  END
>  <Substance ID> (159)
159

>  <Mouse_Female_Canc> (159)
3

>  <SAL> (159)
1

>  <Rat_Male_Canc> (159)
1

>  <TD50_Rat> (159)
NP

>  <TD50_Mouse> (159)
1.37

>  <Rat_Female_Canc> (159)
1

>  <Canc> (159)
3

>  <MolWeight> (159)
409.78

>  <Mouse_Male_Canc> (159)
3

>  <Mouse_Male_NTP> (159)
ND

>  <ChemName> (159)
Chlordane

>  <Rat_Male_NTP> (159)
ND

>  <Reference> (159)
NTP8

>  <Formula> (159)
C10H6Cl8

>  <SMILES> (159)
C1(CC2C(C1Cl)[C@]3(C(=C([C@@]2(C3(Cl)Cl)Cl)Cl)Cl)Cl)Cl

>  <Rat_Female_NTP> (159)
ND

>  <CAS> (159)
57-74-9

>  <Mouse_Female_NTP> (159)
ND

>  <Synonyms> (159)
Aspon-chlordane; HCS 3260; Dowchlor; 1-Exo,2-endo,4,5,6,7,8,8-octachloro-2,3,3a,4,7,7a-hexahydro-4,7-methanoindene; Dow-klor; 4,7-Methanoindan, 1,2,4,5,6,7,8,8-octachloro-3a,4,7,7a-tetrahydro-; Octachlorohexahydromethanoindene; Tat chlor 4; Compound K; Compound K (FDA); Chlordane (avg cis-,trans-); 1,2,4,5,6,7,8,8-octachloro-2,3,3a,4,7,7a-hexahydro-4,7-methanoindane; cortilan-neu; oktaterr; sd 5532; shell sd-5532; topichlor 20; topiclor 20; oms 1437; starchlor; unexan-koeder; clordano; kilex lindane; Velsicol 1068; 1,2,4,5,6,7,8,8-Octachloro-4,7-Methano-3a,4,7,7a-Tetrahydroindane; Octachlor; 1,2,4,5,6,7,8,8-octachloro-3a,4,7,7a-tetra-hydro-4,7-methan-; oindane; 1,2,4,5,6,7,8,8-octachloro-2,3,3a,4,7,7a-hexahydro-4,7-Methano-1H-indene; Chlordane (alpha and gamma isomers); Chlor Kil; Chlortox; Gold Crest; Intox; Kypchlor; M 410; Octa-Klor; Syndane; Termi-ded; Topiclor; 1,2,4,5,6,7,8,8-octa-8,8-octachloro-3a,4,7,7a-tetrahydro-4,7-methanoindan; CD 68; Toxichlor; Ortho-Klor; Belt; Synklor; Corodane; alpha-, gamma-Chlordane.

$$$$
160


 23 24  0  0  0  0  0  0  0  0999 V2000
    1.0629    3.4728   -0.3135 Cl  0  0  0  0  0  0  0  0  0  1  0  0
    0.6454    1.7283   -0.5248 C   0  0  2  0  0  0  0  0  0  2  0  0
    1.7336    0.7668   -0.0217 C   0  0  1  0  0  0  0  0  0  3  0  0
    0.4413    1.2583   -1.9778 C   0  0  0  0  0  0  0  0  0  4  0  0
   -0.7640    1.3505   -0.1712 C   0  0  0  0  0  0  0  0  0  5  0  0
    1.6103    0.4629    1.4665 C   0  0  0  0  0  0  0  0  0  6  0  0
    1.5898   -0.4411   -0.9953 C   0  0  2  0  0  0  0  0  0  7  0  0
    1.8672    1.6149   -3.0359 Cl  0  0  0  0  0  0  0  0  0  8  0  0
   -0.8722    2.1213   -2.8981 Cl  0  0  0  0  0  0  0  0  0  9  0  0
    0.1610   -0.3284   -1.7338 C   0  0  2  0  0  0  0  0  0 10  0  0
   -1.8710    2.3020    0.7577 Cl  0  0  0  0  0  0  0  0  0 11  0  0
   -1.0969    0.3259   -0.9823 C   0  0  0  0  0  0  0  0  0 12  0  0
    0.5822    0.1949    2.0393 O   0  0  0  0  0  0  0  0  0 13  0  0
    2.7861    0.5564    2.1142 O   0  0  0  0  0  0  0  0  0 14  0  0
    2.2367   -1.7592   -0.5309 C   0  0  0  0  0  0  0  0  0 15  0  0
   -0.3788   -1.5456   -0.4443 Cl  0  0  0  0  0  0  0  0  0 16  0  0
   -2.7861   -0.1045   -1.2618 Cl  0  0  0  0  0  0  0  0  0 17  0  0
    2.7434   -1.9600    0.5474 O   0  0  0  0  0  0  0  0  0 18  0  0
    2.2555   -2.6950   -1.5031 O   0  0  0  0  0  0  0  0  0 19  0  0
    2.7417    1.2219   -0.1849 H   0  0  0  0  0  0  0  0  0 20  0  0
    2.3651   -0.3302   -1.7936 H   0  0  0  0  0  0  0  0  0 21  0  0
    2.6062    0.3076    3.0359 H   0  0  0  0  0  0  0  0  0 22  0  0
    2.6931   -3.4728   -1.1200 H   0  0  0  0  0  0  0  0  0 23  0  0
  1  2  1  0  0  0  0
  2  3  1  0  0  0  0
  2  4  1  6  0  0  0
  2  5  1  0  0  0  0
  3  6  1  1  0  0  0
  3  7  1  6  0  0  0
  3 20  1  0  0  0  0
  4  8  1  6  0  0  0
  4  9  1  6  0  0  0
  4 10  1  0  0  0  0
  5 11  1  1  0  0  0
  5 12  2  0  0  0  0
  6 13  2  0  0  0  0
  6 14  1  1  0  0  0
  7 10  1  6  0  0  0
  7 15  1  0  0  0  0
  7 21  1  6  0  0  0
 10 12  1  1  0  0  0
 10 16  1  1  0  0  0
 12 17  1  0  0  0  0
 14 22  1  1  0  0  0
 15 18  2  0  0  0  0
 15 19  1  6  0  0  0
 19 23  1  0  0  0  0
M  END
>  <Substance ID> (160)
160

>  <Mouse_Female_Canc> (160)
1

>  <SAL> (160)
1

>  <Rat_Male_Canc> (160)
3

>  <TD50_Rat> (160)
40.8

>  <TD50_Mouse> (160)
141

>  <Rat_Female_Canc> (160)
3

>  <Canc> (160)
3

>  <MolWeight> (160)
388.85

>  <Mouse_Male_Canc> (160)
3

>  <Mouse_Male_NTP> (160)
CE

>  <ChemName> (160)
Chlorendic Acid

>  <Rat_Male_NTP> (160)
CE

>  <Reference> (160)
NTP304

>  <Formula> (160)
C9H4Cl6O4

>  <SMILES> (160)
Cl[C@]2(Cl)[C@@]1(Cl)C(/Cl)=C(/Cl)[C@]2(Cl)[C@H](C(=O)O)[C@@H]1C(=O)O

>  <Rat_Female_NTP> (160)
CE

>  <CAS> (160)
115-28-6

>  <Mouse_Female_NTP> (160)
NE

>  <Synonyms> (160)
1,4,5,6,7,7-bicyclo[2.2.1]-5-heptene-2,3-dicarboxylic acid; 1,4,5,6,7,7-bicyclo[2.2.1]hept-5-ene-2,3-dicarboxylic acid; 1,4,5,6,7,7-hexachloro-5-norbornene-2,3-dicarboxylic acid; 1,4,5,6,7,7-Hexachlorobicyclo(2.2.1)-5-heptene-2,3-dicarboxylic acid; 1,4,5,6,7,7-hexachlorobicyclo[2.2.1]hept-5-ene-2,3-dicarboxylic acid; het acid; hexachloroendomethylenetetrahydrophthalic acid.

$$$$
161


 14 14  0  0  0  0  0  0  0  0999 V2000
   33.7595  -48.1250   -0.0004 C   0  0  0  0  0  0  0  0  0  0  0  0
   33.7594  -49.4569   -0.0004 C   0  0  0  0  0  0  0  0  0  0  0  0
   36.1824  -49.5236    0.0003 C   0  0  0  0  0  0  0  0  0  0  0  0
   36.1825  -48.0587    0.0003 C   0  0  0  0  0  0  0  0  0  0  0  0
   35.0285  -50.1892    0.0001 C   0  0  0  0  0  0  0  0  0  0  0  0
   35.0287  -47.3929   -0.0002 C   0  0  0  0  0  0  0  0  0  0  0  0
   35.0282  -51.9168    0.0003 Cl  0  0  0  0  0  0  0  0  0  0  0  0
   35.0287  -45.9975   -0.0002 N   0  0  0  0  0  0  0  0  0  0  0  0
   32.8936  -47.6248   -0.0005 H   0  0  0  0  0  0  0  0  0  0  0  0
   32.8934  -49.9570   -0.0007 H   0  0  0  0  0  0  0  0  0  0  0  0
   37.0483  -50.0237    0.0006 H   0  0  0  0  0  0  0  0  0  0  0  0
   37.0485  -47.5587    0.0007 H   0  0  0  0  0  0  0  0  0  0  0  0
   35.8947  -45.4975   -0.0001 H   0  0  0  0  0  0  0  0  0  0  0  0
   34.1627  -45.4975   -0.0003 H   0  0  0  0  0  0  0  0  0  0  0  0
  1  2  2  0  0  0  0
  3  4  1  0  0  0  0
  1  6  1  0  0  0  0
  2  5  1  0  0  0  0
  5  3  2  0  0  0  0
  4  6  2  0  0  0  0
  5  7  1  0  0  0  0
  6  8  1  0  0  0  0
  1  9  1  0  0  0  0
  2 10  1  0  0  0  0
  3 11  1  0  0  0  0
  4 12  1  0  0  0  0
  8 13  1  0  0  0  0
  8 14  1  0  0  0  0
M  END
>  <Substance ID> (161)
161

>  <Mouse_Female_Canc> (161)
1

>  <SAL> (161)
3

>  <Rat_Male_Canc> (161)
3

>  <TD50_Rat> (161)
7.62

>  <TD50_Mouse> (161)
89.5

>  <Rat_Female_Canc> (161)
2

>  <Canc> (161)
3

>  <MolWeight> (161)
164.03

>  <Mouse_Male_Canc> (161)
3

>  <Mouse_Male_NTP> (161)
SE

>  <ChemName> (161)
p-Chloroaniline Hydrochloride

>  <Rat_Male_NTP> (161)
CE

>  <Reference> (161)
NTP351

>  <Formula> (161)
C6H6ClN.HCl

>  <SMILES> (161)
C1(=CC=C(Cl)C=C1)N.Cl

>  <Rat_Female_NTP> (161)
EE

>  <CAS> (161)
20265-96-7

>  <Mouse_Female_NTP> (161)
NE

>  <Synonyms> (161)
4-chlorobenzenamine hydrochloride.

$$$$
162


 35 36  0  0  0  0  0  0  0  0999 V2000
   35.2572  -56.7448   -0.1147 C   0  0  0  0  0  0  0  0  0  0  0  0
   36.1516  -57.5556    0.5040 C   0  0  0  0  0  0  0  0  0  0  0  0
   37.7879  -55.7974    0.7171 C   0  0  0  0  0  0  0  0  0  0  0  0
   36.8240  -54.8878    0.0734 C   0  0  0  0  0  0  0  0  0  0  0  0
   37.4502  -57.0594    0.9296 C   0  0  0  0  0  0  0  0  0  0  0  0
   35.6330  -55.3414   -0.3129 C   0  0  0  0  0  0  0  0  0  0  0  0
   30.9145  -56.6987    1.6734 C   0  0  0  0  0  0  0  0  0  0  0  0
   32.0766  -57.1944    1.2268 C   0  0  0  0  0  0  0  0  0  0  0  0
   32.1054  -55.6055   -0.6055 C   0  0  0  0  0  0  0  0  0  0  0  0
   30.8437  -55.0480   -0.1028 C   0  0  0  0  0  0  0  0  0  0  0  0
   32.6837  -56.6241    0.0017 C   0  0  0  0  0  0  0  0  0  0  0  0
   30.2631  -55.5905    0.9677 C   0  0  0  0  0  0  0  0  0  0  0  0
   28.7345  -54.9868    1.5133 Cl  0  0  0  0  0  0  0  0  0  0  0  0
   33.9053  -57.3137   -0.6583 C   0  0  0  0  0  0  0  0  0  0  0  0
   33.7951  -56.8118   -1.9962 O   0  0  0  0  0  0  0  0  0  0  0  0
   39.3539  -55.2309    1.1874 Cl  0  0  0  0  0  0  0  0  0  0  0  0
   33.7983  -58.9092   -0.6557 C   0  0  0  0  0  0  0  0  0  0  0  0
   34.7953  -59.5843   -0.3413 O   0  0  0  0  0  0  0  0  0  0  0  0
   32.6462  -59.7177   -1.0163 O   0  0  0  0  0  0  0  0  0  0  0  0
   31.4474  -59.0886   -1.5005 C   0  0  0  0  0  0  0  0  0  0  0  0
   30.2907  -60.0997   -1.4111 C   0  0  0  0  0  0  0  0  0  0  0  0
   35.9132  -58.5125    0.6705 H   0  0  0  0  0  0  0  0  0  0  0  0
   37.0646  -53.9283   -0.0737 H   0  0  0  0  0  0  0  0  0  0  0  0
   38.0923  -57.6755    1.3858 H   0  0  0  0  0  0  0  0  0  0  0  0
   34.9845  -54.7148   -0.7451 H   0  0  0  0  0  0  0  0  0  0  0  0
   30.4896  -57.0861    2.4916 H   0  0  0  0  0  0  0  0  0  0  0  0
   32.5289  -57.9409    1.7149 H   0  0  0  0  0  0  0  0  0  0  0  0
   32.5317  -55.2082   -1.4182 H   0  0  0  0  0  0  0  0  0  0  0  0
   30.4220  -54.2655   -0.5609 H   0  0  0  0  0  0  0  0  0  0  0  0
   34.5380  -57.1820   -2.5539 H   0  0  0  0  0  0  0  0  0  0  0  0
   31.2380  -58.2872   -0.9402 H   0  0  0  0  0  0  0  0  0  0  0  0
   31.5755  -58.8069   -2.4514 H   0  0  0  0  0  0  0  0  0  0  0  0
   29.4494  -59.6748   -1.7451 H   0  0  0  0  0  0  0  0  0  0  0  0
   30.1663  -60.3813   -0.4596 H   0  0  0  0  0  0  0  0  0  0  0  0
   30.5037  -60.9009   -1.9703 H   0  0  0  0  0  0  0  0  0  0  0  0
  1  2  2  0  0  0  0
  3  4  1  0  0  0  0
  1  6  1  0  0  0  0
  2  5  1  0  0  0  0
  5  3  2  0  0  0  0
  4  6  2  0  0  0  0
  7  8  2  0  0  0  0
  9 10  1  0  0  0  0
  7 12  1  0  0  0  0
  8 11  1  0  0  0  0
 11  9  2  0  0  0  0
 10 12  2  0  0  0  0
 12 13  1  0  0  0  0
 11 14  1  0  0  0  0
 14 15  1  0  0  0  0
 14  1  1  0  0  0  0
  3 16  1  0  0  0  0
 14 17  1  0  0  0  0
 17 18  2  0  0  0  0
 17 19  1  0  0  0  0
 19 20  1  0  0  0  0
 20 21  1  0  0  0  0
  2 22  1  0  0  0  0
  4 23  1  0  0  0  0
  5 24  1  0  0  0  0
  6 25  1  0  0  0  0
  7 26  1  0  0  0  0
  8 27  1  0  0  0  0
  9 28  1  0  0  0  0
 10 29  1  0  0  0  0
 15 30  1  0  0  0  0
 20 31  1  0  0  0  0
 20 32  1  0  0  0  0
 21 33  1  0  0  0  0
 21 34  1  0  0  0  0
 21 35  1  0  0  0  0
M  END
>  <Substance ID> (162)
162

>  <Mouse_Female_Canc> (162)
3

>  <SAL> (162)
1

>  <Rat_Male_Canc> (162)
2

>  <TD50_Rat> (162)
NP

>  <TD50_Mouse> (162)
93.9

>  <Rat_Female_Canc> (162)
2

>  <Canc> (162)
3

>  <MolWeight> (162)
325.19

>  <Mouse_Male_Canc> (162)
3

>  <Mouse_Male_NTP> (162)
ND

>  <ChemName> (162)
Chlorobenzilate

>  <Rat_Male_NTP> (162)
ND

>  <Reference> (162)
NTP75

>  <Formula> (162)
C16H14Cl2O3

>  <SMILES> (162)
OC(C1=CC=C(C=C1)Cl)(C2=CC=C(C=C2)Cl)C(=O)OCC

>  <Rat_Female_NTP> (162)
ND

>  <CAS> (162)
510-15-6

>  <Mouse_Female_NTP> (162)
ND

>  <Synonyms> (162)
4,4'-dichlorobenzilic acid ethyl ester; 4-Chloro-alpha-(4-chlorophenyl)-alpha-hydroxybenzeneacetic acid ethyl ester; ACAR; Acaraben; acaraben 4E; Akar; akar 338; akar 50; Ben-o-chlor; benz-o-chlor; Benzilan; Benzilen; Dichlorobenzilic acid ethyl ester; Chlorobenzylate; compound 338; ECB; ethyl 2-hydroxy-2,2-bis(4-chlorophenyl)acetate; Ethyl 4,4'-Dichlorobenzilate; ethyl 4,4'-dichlorodiphenylglycollate; ethyl 4-chloro-alpha-(4-chlorophenyl)-alpha-hydroxybenzeneacetate; ethyl ester of 4,4'-dichlorobenzilic acid; Folbex; folbex smoke-strips; g 23992; G 338; geigy 338; Kopmite.

$$$$
163


 12 11  0  0  0  0  0  0  0  0999 V2000
   32.6719  -67.7556    0.0003 C   0  0  0  0  0  0  0  0  0  0  0  0
   33.8683  -67.1714    0.0003 C   0  0  0  0  0  0  0  0  0  0  0  0
   35.1137  -68.0103    0.0001 C   0  0  0  0  0  0  0  0  0  0  0  0
   36.5337  -66.9585   -0.0005 Cl  0  0  0  0  0  0  0  0  0  0  0  0
   33.9718  -65.6735   -0.0002 C   0  0  0  0  0  0  0  0  0  0  0  0
   31.8427  -67.1968    0.0004 H   0  0  0  0  0  0  0  0  0  0  0  0
   32.6026  -68.7532    0.0003 H   0  0  0  0  0  0  0  0  0  0  0  0
   35.1268  -68.5871    0.8169 H   0  0  0  0  0  0  0  0  0  0  0  0
   35.1264  -68.5875   -0.8164 H   0  0  0  0  0  0  0  0  0  0  0  0
   34.9352  -65.4055   -0.0002 H   0  0  0  0  0  0  0  0  0  0  0  0
   33.5246  -65.3078    0.8161 H   0  0  0  0  0  0  0  0  0  0  0  0
   33.5247  -65.3083   -0.8167 H   0  0  0  0  0  0  0  0  0  0  0  0
  1  2  2  0  0  0  0
  2  3  1  0  0  0  0
  3  4  1  0  0  0  0
  2  5  1  0  0  0  0
  1  6  1  0  0  0  0
  1  7  1  0  0  0  0
  3  8  1  0  0  0  0
  3  9  1  0  0  0  0
  5 10  1  0  0  0  0
  5 11  1  0  0  0  0
  5 12  1  0  0  0  0
M  END
>  <Substance ID> (163)
163

>  <Mouse_Female_Canc> (163)
3

>  <SAL> (163)
2

>  <Rat_Male_Canc> (163)
3

>  <TD50_Rat> (163)
113

>  <TD50_Mouse> (163)
77.7

>  <Rat_Female_Canc> (163)
3

>  <Canc> (163)
3

>  <MolWeight> (163)
90.55

>  <Mouse_Male_Canc> (163)
3

>  <Mouse_Male_NTP> (163)
CE

>  <ChemName> (163)
3-Chloro-2-Methylpropene 

>  <Rat_Male_NTP> (163)
CE

>  <Reference> (163)
NTP300

>  <Formula> (163)
C4H7Cl

>  <SMILES> (163)
CC(=C)CCl

>  <Rat_Female_NTP> (163)
CE

>  <CAS> (163)
563-47-3

>  <Mouse_Female_NTP> (163)
CE

>  <Synonyms> (163)
1-chloro-2-methyl-2-propene; 2-methylallyl chloride; 3-Chloro-2-methyl-1-propene; 3-Chloro-2-methylprop-1-ene; 3-chloroisobutene; 3-chloroisobutylene; beta-methallyl chloride; beta-methylallyl chloride; Isobutenyl chloride; Methallyl chloride; gamma-chloroisobutylene.

$$$$
164


 14 14  0  0  0  0  0  0  0  0999 V2000
   33.2670  -72.3203   -0.0006 C   0  0  0  0  0  0  0  0  0  0  0  0
   33.0751  -73.6383   -0.0008 C   0  0  0  0  0  0  0  0  0  0  0  0
   35.4429  -73.9964    0.0009 C   0  0  0  0  0  0  0  0  0  0  0  0
   35.5927  -72.5416    0.0006 C   0  0  0  0  0  0  0  0  0  0  0  0
   34.2253  -74.5278    0.0004 C   0  0  0  0  0  0  0  0  0  0  0  0
   34.5675  -71.7852    0.0000 N   0  0  0  0  0  0  0  0  0  0  0  0
   36.6546  -74.8824    0.0018 C   0  0  0  0  0  0  0  0  0  0  0  0
   38.1145  -73.8867   -0.0008 Cl  0  0  0  0  0  0  0  0  0  0  0  0
   32.4785  -71.7052   -0.0009 H   0  0  0  0  0  0  0  0  0  0  0  0
   32.1479  -74.0129   -0.0017 H   0  0  0  0  0  0  0  0  0  0  0  0
   36.5073  -72.1372    0.0008 H   0  0  0  0  0  0  0  0  0  0  0  0
   34.1023  -75.5202    0.0008 H   0  0  0  0  0  0  0  0  0  0  0  0
   36.6457  -75.4580    0.8195 H   0  0  0  0  0  0  0  0  0  0  0  0
   36.6447  -75.4609   -0.8138 H   0  0  0  0  0  0  0  0  0  0  0  0
  1  2  2  0  0  0  0
  3  4  1  0  0  0  0
  1  6  1  0  0  0  0
  2  5  1  0  0  0  0
  5  3  2  0  0  0  0
  4  6  2  0  0  0  0
  3  7  1  0  0  0  0
  7  8  1  0  0  0  0
  1  9  1  0  0  0  0
  2 10  1  0  0  0  0
  4 11  1  0  0  0  0
  5 12  1  0  0  0  0
  7 13  1  0  0  0  0
  7 14  1  0  0  0  0
M  END
>  <Substance ID> (164)
164

>  <Mouse_Female_Canc> (164)
3

>  <SAL> (164)
3

>  <Rat_Male_Canc> (164)
3

>  <TD50_Rat> (164)
433

>  <TD50_Mouse> (164)
429

>  <Rat_Female_Canc> (164)
2

>  <Canc> (164)
3

>  <MolWeight> (164)
127.57

>  <Mouse_Male_Canc> (164)
3

>  <Mouse_Male_NTP> (164)
ND

>  <ChemName> (164)
3-(Chloromethyl) Pyridine Hydrochloride

>  <Rat_Male_NTP> (164)
ND

>  <Reference> (164)
NTP95

>  <Formula> (164)
C6H6ClN

>  <SMILES> (164)
ClCc1cccnc1

>  <Rat_Female_NTP> (164)
ND

>  <CAS> (164)
6959-48-4

>  <Mouse_Female_NTP> (164)
ND

>  <Synonyms> (164)
3-Picolyl chloride hydrochloride.

$$$$
165


 16 16  0  0  0  0  0  0  0  0999 V2000
   33.5461  -83.0792    0.0003 C   0  0  0  0  0  0  0  0  0  0  0  0
   33.5449  -84.4111   -0.0008 C   0  0  0  0  0  0  0  0  0  0  0  0
   35.9653  -84.4768    0.0005 C   0  0  0  0  0  0  0  0  0  0  0  0
   35.9657  -83.0145    0.0008 C   0  0  0  0  0  0  0  0  0  0  0  0
   34.8120  -85.1418   -0.0003 C   0  0  0  0  0  0  0  0  0  0  0  0
   34.8132  -82.3474   -0.0003 C   0  0  0  0  0  0  0  0  0  0  0  0
   34.8133  -80.9514   -0.0004 N   0  0  0  0  0  0  0  0  0  0  0  0
   37.1745  -85.1753   -0.0002 N   0  0  0  0  0  0  0  0  0  0  0  0
   34.8110  -86.8700   -0.0009 Cl  0  0  0  0  0  0  0  0  0  0  0  0
   32.6803  -82.5789    0.0014 H   0  0  0  0  0  0  0  0  0  0  0  0
   32.6788  -84.9109   -0.0020 H   0  0  0  0  0  0  0  0  0  0  0  0
   36.8320  -82.5150    0.0017 H   0  0  0  0  0  0  0  0  0  0  0  0
   35.6794  -80.4514   -0.0008 H   0  0  0  0  0  0  0  0  0  0  0  0
   33.9474  -80.4513   -0.0002 H   0  0  0  0  0  0  0  0  0  0  0  0
   37.1744  -86.1752   -0.0003 H   0  0  0  0  0  0  0  0  0  0  0  0
   38.0407  -84.6755   -0.0005 H   0  0  0  0  0  0  0  0  0  0  0  0
  1  2  2  0  0  0  0
  3  4  1  0  0  0  0
  1  6  1  0  0  0  0
  2  5  1  0  0  0  0
  5  3  2  0  0  0  0
  4  6  2  0  0  0  0
  6  7  1  0  0  0  0
  3  8  1  0  0  0  0
  5  9  1  0  0  0  0
  1 10  1  0  0  0  0
  2 11  1  0  0  0  0
  4 12  1  0  0  0  0
  7 13  1  0  0  0  0
  7 14  1  0  0  0  0
  8 15  1  0  0  0  0
  8 16  1  0  0  0  0
M  END
>  <Substance ID> (165)
165

>  <Mouse_Female_Canc> (165)
3

>  <SAL> (165)
3

>  <Rat_Male_Canc> (165)
3

>  <TD50_Rat> (165)
315

>  <TD50_Mouse> (165)
1230

>  <Rat_Female_Canc> (165)
1

>  <Canc> (165)
3

>  <MolWeight> (165)
142.59

>  <Mouse_Male_Canc> (165)
1

>  <Mouse_Male_NTP> (165)
ND

>  <ChemName> (165)
4-Chloro-meta-Phenylenediamine 

>  <Rat_Male_NTP> (165)
ND

>  <Reference> (165)
NTP85

>  <Formula> (165)
C6H7ClN2

>  <SMILES> (165)
NC1=C(C=CC(=C1)N)Cl

>  <Rat_Female_NTP> (165)
ND

>  <CAS> (165)
5131-60-2

>  <Mouse_Female_NTP> (165)
ND

>  <Synonyms> (165)
1-chloro-2,4-diaminobenzene; 4-chloro-1,3-Benzenediamine; 4-chloro-1,3-diaminobenzene; 4-chloro-1,3-phenylenediamine; 4-chlorophenyl-1,3-diamine; 4-chlorophenylene-1,3-diamine; 4-chlorophenylenediamine; 4-cl-m-pd; C.I. 76027.

$$$$
166


 16 16  0  0  0  0  0  0  0  0999 V2000
    5.0854   -3.7348   -0.0005 C   0  0  0  0  0  0  0  0  0  0  0  0
    5.0777   -5.0662    0.0004 C   0  0  0  0  0  0  0  0  0  0  0  0
    7.4982   -5.1455    0.0003 C   0  0  0  0  0  0  0  0  0  0  0  0
    7.5071   -3.6819    0.0004 C   0  0  0  0  0  0  0  0  0  0  0  0
    6.3410   -5.8045    0.0001 C   0  0  0  0  0  0  0  0  0  0  0  0
    6.3579   -3.0097    0.0000 C   0  0  0  0  0  0  0  0  0  0  0  0
    6.3666   -1.6135    0.0000 N   0  0  0  0  0  0  0  0  0  0  0  0
    8.7198   -2.9916    0.0002 N   0  0  0  0  0  0  0  0  0  0  0  0
    6.3306   -7.5325    0.0004 Cl  0  0  0  0  0  0  0  0  0  0  0  0
    4.2222   -3.2299   -0.0016 H   0  0  0  0  0  0  0  0  0  0  0  0
    4.2089   -5.5614    0.0013 H   0  0  0  0  0  0  0  0  0  0  0  0
    8.3612   -5.6508    0.0004 H   0  0  0  0  0  0  0  0  0  0  0  0
    7.2357   -1.1189    0.0004 H   0  0  0  0  0  0  0  0  0  0  0  0
    5.5037   -1.1081   -0.0004 H   0  0  0  0  0  0  0  0  0  0  0  0
    8.7260   -1.9916    0.0003 H   0  0  0  0  0  0  0  0  0  0  0  0
    9.5827   -3.4969    0.0000 H   0  0  0  0  0  0  0  0  0  0  0  0
  1  2  2  0  0  0  0
  3  4  1  0  0  0  0
  1  6  1  0  0  0  0
  2  5  1  0  0  0  0
  5  3  2  0  0  0  0
  4  6  2  0  0  0  0
  6  7  1  0  0  0  0
  4  8  1  0  0  0  0
  5  9  1  0  0  0  0
  1 10  1  0  0  0  0
  2 11  1  0  0  0  0
  3 12  1  0  0  0  0
  7 13  1  0  0  0  0
  7 14  1  0  0  0  0
  8 15  1  0  0  0  0
  8 16  1  0  0  0  0
M  END
>  <Substance ID> (166)
166

>  <Mouse_Female_Canc> (166)
3

>  <SAL> (166)
3

>  <Rat_Male_Canc> (166)
3

>  <TD50_Rat> (166)
214

>  <TD50_Mouse> (166)
1340

>  <Rat_Female_Canc> (166)
3

>  <Canc> (166)
3

>  <MolWeight> (166)
142.59

>  <Mouse_Male_Canc> (166)
3

>  <Mouse_Male_NTP> (166)
ND

>  <ChemName> (166)
4-Chloro-orto-Phenylenediamine 

>  <Rat_Male_NTP> (166)
ND

>  <Reference> (166)
NTP63

>  <Formula> (166)
C6H7ClN2

>  <SMILES> (166)
NC1=C(C=CC(=C1)Cl)N

>  <Rat_Female_NTP> (166)
ND

>  <CAS> (166)
95-83-0

>  <Mouse_Female_NTP> (166)
ND

>  <Synonyms> (166)
1,2-diamino-4-chlorobenzene; 1-chloro-3,4-diaminobenzene; 2-amino-4-chloroaniline; 3,4-diamino-1-chlorobenzene; 3,4-diaminochlorobenzene; 4-chloro-1,2-Benzenediamine; 4-chloro-1,2-diaminobenzene; p-chloro-1,2-phenylenediamine; 4-cl-o-pd; C.I. 76015; ursol olive 6g.

$$$$
167


 14 14  0  0  0  0  0  0  0  0999 V2000
    3.8778  -13.9893   -0.0006 C   0  0  0  0  0  0  0  0  0  0  0  0
    3.7489  -15.3146    0.0001 C   0  0  0  0  0  0  0  0  0  0  0  0
    6.1498  -15.6165   -0.0001 C   0  0  0  0  0  0  0  0  0  0  0  0
    6.2934  -14.1602    0.0004 C   0  0  0  0  0  0  0  0  0  0  0  0
    4.9371  -16.1657    0.0003 C   0  0  0  0  0  0  0  0  0  0  0  0
    5.2111  -13.3849   -0.0002 C   0  0  0  0  0  0  0  0  0  0  0  0
    7.8678  -13.4469   -0.0006 Cl  0  0  0  0  0  0  0  0  0  0  0  0
    7.3055  -16.4490   -0.0002 C   0  0  0  0  0  0  0  0  0  0  0  0
    4.7689  -17.8866    0.0004 Cl  0  0  0  0  0  0  0  0  0  0  0  0
    2.1751  -16.0303   -0.0001 Cl  0  0  0  0  0  0  0  0  0  0  0  0
    2.4725  -12.9839   -0.0006 Cl  0  0  0  0  0  0  0  0  0  0  0  0
    5.3521  -11.9668   -0.0001 C   0  0  0  0  0  0  0  0  0  0  0  0
    5.4667  -10.8212   -0.0007 N   0  0  0  0  0  0  0  0  0  0  0  0
    8.2383  -17.1234   -0.0002 N   0  0  0  0  0  0  0  0  0  0  0  0
  1  2  2  0  0  0  0
  3  4  1  0  0  0  0
  1  6  1  0  0  0  0
  2  5  1  0  0  0  0
  5  3  2  0  0  0  0
  4  6  2  0  0  0  0
  4  7  1  0  0  0  0
  3  8  1  0  0  0  0
  5  9  1  0  0  0  0
  2 10  1  0  0  0  0
  1 11  1  0  0  0  0
  6 12  1  0  0  0  0
 12 13  3  0  0  0  0
  8 14  3  0  0  0  0
M  END
>  <Substance ID> (167)
167

>  <Mouse_Female_Canc> (167)
1

>  <SAL> (167)
1

>  <Rat_Male_Canc> (167)
3

>  <TD50_Rat> (167)
2270

>  <TD50_Mouse> (167)
NP

>  <Rat_Female_Canc> (167)
3

>  <Canc> (167)
3

>  <MolWeight> (167)
265.91

>  <Mouse_Male_Canc> (167)
1

>  <Mouse_Male_NTP> (167)
ND

>  <ChemName> (167)
Chlorothalonil

>  <Rat_Male_NTP> (167)
ND

>  <Reference> (167)
NTP41

>  <Formula> (167)
C8Cl4N2

>  <SMILES> (167)
ClC1=C(C(=C(C(=C1C#N)Cl)Cl)Cl)C#N

>  <Rat_Female_NTP> (167)
ND

>  <CAS> (167)
1897-45-6

>  <Mouse_Female_NTP> (167)
ND

>  <Synonyms> (167)
1,3-dicyano-2,4,5,6-tetrachlorobenzene; 2,4,5,6-Tetrachloro-1,3-benzenedicarbonitrile; 2,4,5,6-tetrachloro-1,3-dicyanobenzene; 2,4,5,6-tetrachloroisophthalonitrile; Ortho Multi-Purpose Fungicide Daconil 2787; m-TCPN; Black Leaf Lawn & Garden Fungicide; Bombardier; Bonide; Bravo; bravo-w-75; chloroalonil; Chlorothanonil; ClortoCaffaro; Clortosip; DAC-2787; Dacobre; Daconil; Daconil 2787; Dexol Fungicide Containing Daconil; Dragon Daconil 2787; Echo 75; Evade; Exotherm; Exotherm Termil; Farber; Ferti-lome; Forturf; Green Charm Multi-Purpose Fungicide; Green Thumb Lawn & Garden Fungicide; Jupital; Ole; Pennington's Pride Multi-Purpose Fungicide; Pillarich; Pro-Care Multi-Purpose Fungicide; Repulse; Rigo's Best Lawn & Garden Fungicide; SA Lawn Ornamental & Vegetable Fungicide; Security Fungi-Gard; Sweep; Taloberg; TCIN; Termil; Tetrachloro-1,3-dicyanobenzene; tetrachloroisophthalonitrile; TPN; Tuffcide; Vanox.

$$$$
168


 17 17  0  0  0  0  0  0  0  0999 V2000
    2.1699  -23.4650   -0.0001 C   0  0  0  0  0  0  0  0  0  0  0  0
    2.1670  -24.7968   -0.0003 C   0  0  0  0  0  0  0  0  0  0  0  0
    4.5891  -24.8687    0.0002 C   0  0  0  0  0  0  0  0  0  0  0  0
    4.5922  -23.4041    0.0000 C   0  0  0  0  0  0  0  0  0  0  0  0
    3.4339  -25.5320   -0.0001 C   0  0  0  0  0  0  0  0  0  0  0  0
    3.4401  -22.7355    0.0000 C   0  0  0  0  0  0  0  0  0  0  0  0
    3.4306  -26.9276   -0.0003 N   0  0  0  0  0  0  0  0  0  0  0  0
    3.4430  -21.2348   -0.0003 C   0  0  0  0  0  0  0  0  0  0  0  0
    6.0906  -22.5440   -0.0006 Cl  0  0  0  0  0  0  0  0  0  0  0  0
    1.3050  -22.9630    0.0001 H   0  0  0  0  0  0  0  0  0  0  0  0
    1.2999  -25.2950   -0.0006 H   0  0  0  0  0  0  0  0  0  0  0  0
    5.4539  -25.3707    0.0005 H   0  0  0  0  0  0  0  0  0  0  0  0
    4.2953  -27.4297   -0.0002 H   0  0  0  0  0  0  0  0  0  0  0  0
    2.5633  -27.4255   -0.0006 H   0  0  0  0  0  0  0  0  0  0  0  0
    4.3862  -20.9028   -0.0002 H   0  0  0  0  0  0  0  0  0  0  0  0
    2.9722  -20.8999    0.8160 H   0  0  0  0  0  0  0  0  0  0  0  0
    2.9725  -20.9002   -0.8168 H   0  0  0  0  0  0  0  0  0  0  0  0
  1  2  2  0  0  0  0
  3  4  1  0  0  0  0
  1  6  1  0  0  0  0
  2  5  1  0  0  0  0
  5  3  2  0  0  0  0
  4  6  2  0  0  0  0
  5  7  1  0  0  0  0
  6  8  1  0  0  0  0
  4  9  1  0  0  0  0
  1 10  1  0  0  0  0
  2 11  1  0  0  0  0
  3 12  1  0  0  0  0
  7 13  1  0  0  0  0
  7 14  1  0  0  0  0
  8 15  1  0  0  0  0
  8 16  1  0  0  0  0
  8 17  1  0  0  0  0
M  END
>  <Substance ID> (168)
168

>  <Mouse_Female_Canc> (168)
1

>  <SAL> (168)
1

>  <Rat_Male_Canc> (168)
1

>  <TD50_Rat> (168)
NP

>  <TD50_Mouse> (168)
NP

>  <Rat_Female_Canc> (168)
1

>  <Canc> (168)
1

>  <MolWeight> (168)
141.60

>  <Mouse_Male_Canc> (168)
1

>  <Mouse_Male_NTP> (168)
ND

>  <ChemName> (168)
3-Chloro-para-Toluidine 

>  <Rat_Male_NTP> (168)
ND

>  <Reference> (168)
NTP145

>  <Formula> (168)
C7H8ClN

>  <SMILES> (168)
ClC1=C(C=CC(=C1)N)C

>  <Rat_Female_NTP> (168)
ND

>  <CAS> (168)
95-74-9

>  <Mouse_Female_NTP> (168)
ND

>  <Synonyms> (168)
1-Amino-3-chloro-4-methylbenzene; 2-Chloro-4-aminotoluene; 3-Amino-2-chlorotoluene; 3-Chloro-4-Methyl-Benzenamine; 3-chloro-4-methylaniline; 3-CPT; 4-Amino-2-Chlorotoluene; dkc 1347; drc 1339; Gull Toxicant; Toluidine, 3-chloro-.

$$$$
169


 17 17  0  0  0  0  0  0  0  0999 V2000
    6.2728  -31.7297   -0.0003 C   0  0  0  0  0  0  0  0  0  0  0  0
    6.2648  -33.0616   -0.0008 C   0  0  0  0  0  0  0  0  0  0  0  0
    8.6854  -33.1413   -0.0003 C   0  0  0  0  0  0  0  0  0  0  0  0
    8.6942  -31.6777   -0.0002 C   0  0  0  0  0  0  0  0  0  0  0  0
    7.5282  -33.8002   -0.0003 C   0  0  0  0  0  0  0  0  0  0  0  0
    7.5451  -31.0052    0.0003 C   0  0  0  0  0  0  0  0  0  0  0  0
    7.5531  -29.6091    0.0011 N   0  0  0  0  0  0  0  0  0  0  0  0
    7.5176  -35.5282   -0.0002 Cl  0  0  0  0  0  0  0  0  0  0  0  0
    9.9988  -30.9354   -0.0007 C   0  0  0  0  0  0  0  0  0  0  0  0
    5.4098  -31.2245   -0.0004 H   0  0  0  0  0  0  0  0  0  0  0  0
    5.3960  -33.5566   -0.0015 H   0  0  0  0  0  0  0  0  0  0  0  0
    9.5484  -33.6465   -0.0004 H   0  0  0  0  0  0  0  0  0  0  0  0
    8.4220  -29.1140    0.0015 H   0  0  0  0  0  0  0  0  0  0  0  0
    6.6900  -29.1041    0.0012 H   0  0  0  0  0  0  0  0  0  0  0  0
    9.8228  -29.9510   -0.0005 H   0  0  0  0  0  0  0  0  0  0  0  0
   10.5217  -31.1798   -0.8174 H   0  0  0  0  0  0  0  0  0  0  0  0
   10.5224  -31.1800    0.8154 H   0  0  0  0  0  0  0  0  0  0  0  0
  1  2  2  0  0  0  0
  3  4  1  0  0  0  0
  1  6  1  0  0  0  0
  2  5  1  0  0  0  0
  5  3  2  0  0  0  0
  4  6  2  0  0  0  0
  6  7  1  0  0  0  0
  5  8  1  0  0  0  0
  4  9  1  0  0  0  0
  1 10  1  0  0  0  0
  2 11  1  0  0  0  0
  3 12  1  0  0  0  0
  7 13  1  0  0  0  0
  7 14  1  0  0  0  0
  9 15  1  0  0  0  0
  9 16  1  0  0  0  0
  9 17  1  0  0  0  0
M  END
>  <Substance ID> (169)
169

>  <Mouse_Female_Canc> (169)
3

>  <SAL> (169)
1

>  <Rat_Male_Canc> (169)
1

>  <TD50_Rat> (169)
NP

>  <TD50_Mouse> (169)
25.8

>  <Rat_Female_Canc> (169)
1

>  <Canc> (169)
3

>  <MolWeight> (169)
141.60

>  <Mouse_Male_Canc> (169)
3

>  <Mouse_Male_NTP> (169)
ND

>  <ChemName> (169)
4-Chloro-orto-Toluidine Hydrochloride

>  <Rat_Male_NTP> (169)
ND

>  <Reference> (169)
NTP165

>  <Formula> (169)
C7H8ClN

>  <SMILES> (169)
C1(=C(C=CC(=C1)Cl)N)C

>  <Rat_Female_NTP> (169)
ND

>  <CAS> (169)
3165-93-3

>  <Mouse_Female_NTP> (169)
ND

>  <Synonyms> (169)
2-amino-5-chlorotoluene hydrochloride; 2-methyl-4-chloroaniline hydrochloride; fast red salt tra; fast red salt trn; hindasol red tr salt; kromon green b; natasol fast red tr salt; neutrosel red trva; ofna-perl salt rra; red base ciba ix; red base irga ix; Red Salt Ciba IX; red salt irga ix; red trs salt; Sanyo Fast Red Salt TR; 4-Chloro-2-methylanilinium chloride; 4-Chloro-2-methylaniline hydrochloride; 4-Chloro-2-Methylbenzenamine, Hydrochloride; 4-chloro-6-methylaniline hydrochloride; 5-chloro-2-aminotoluene hydrochloride; Amarthol Fast Red TR Salt; amarthol fast red tr base; azanil red salt trd; azoene fast red tr salt; azogene fast red tr; azoic diazo component 11 base; Azoic Diazo No. 11; diazo fast red tr; diazo fast red tra; brentamine fast red tr salt; C.I. 37085; C.I. azoic diazo component 11; daito red salt tr; devol red k; devol red ta salt; devol red tr; fast red 5ct salt; Fast Red TR salt.

$$$$
170


 17 17  0  0  0  0  0  0  0  0999 V2000
    3.0972  -41.5847   -0.0003 C   0  0  0  0  0  0  0  0  0  0  0  0
    3.1032  -42.9159   -0.0003 C   0  0  0  0  0  0  0  0  0  0  0  0
    5.5238  -42.9706    0.0002 C   0  0  0  0  0  0  0  0  0  0  0  0
    5.5175  -41.5080    0.0006 C   0  0  0  0  0  0  0  0  0  0  0  0
    4.3743  -43.6417   -0.0004 C   0  0  0  0  0  0  0  0  0  0  0  0
    4.3612  -40.8479    0.0004 C   0  0  0  0  0  0  0  0  0  0  0  0
    4.3555  -39.4513   -0.0001 N   0  0  0  0  0  0  0  0  0  0  0  0
    1.6113  -43.7870   -0.0001 Cl  0  0  0  0  0  0  0  0  0  0  0  0
    6.8146  -40.7518   -0.0001 C   0  0  0  0  0  0  0  0  0  0  0  0
    2.2290  -41.0884   -0.0009 H   0  0  0  0  0  0  0  0  0  0  0  0
    6.3921  -43.4667    0.0003 H   0  0  0  0  0  0  0  0  0  0  0  0
    4.3791  -44.6417   -0.0010 H   0  0  0  0  0  0  0  0  0  0  0  0
    5.2194  -38.9478    0.0004 H   0  0  0  0  0  0  0  0  0  0  0  0
    3.4874  -38.9549   -0.0011 H   0  0  0  0  0  0  0  0  0  0  0  0
    6.6283  -39.7693    0.0003 H   0  0  0  0  0  0  0  0  0  0  0  0
    7.3398  -40.9906   -0.8170 H   0  0  0  0  0  0  0  0  0  0  0  0
    7.3410  -40.9910    0.8158 H   0  0  0  0  0  0  0  0  0  0  0  0
  1  2  2  0  0  0  0
  3  4  1  0  0  0  0
  1  6  1  0  0  0  0
  2  5  1  0  0  0  0
  5  3  2  0  0  0  0
  4  6  2  0  0  0  0
  6  7  1  0  0  0  0
  2  8  1  0  0  0  0
  4  9  1  0  0  0  0
  1 10  1  0  0  0  0
  3 11  1  0  0  0  0
  5 12  1  0  0  0  0
  7 13  1  0  0  0  0
  7 14  1  0  0  0  0
  9 15  1  0  0  0  0
  9 16  1  0  0  0  0
  9 17  1  0  0  0  0
M  END
>  <Substance ID> (170)
170

>  <Mouse_Female_Canc> (170)
3

>  <SAL> (170)
1

>  <Rat_Male_Canc> (170)
1

>  <TD50_Rat> (170)
NP

>  <TD50_Mouse> (170)
195

>  <Rat_Female_Canc> (170)
1

>  <Canc> (170)
3

>  <MolWeight> (170)
141.60

>  <Mouse_Male_Canc> (170)
3

>  <Mouse_Male_NTP> (170)
ND

>  <ChemName> (170)
5-Chloro-orto-Toluidine 

>  <Rat_Male_NTP> (170)
ND

>  <Reference> (170)
NTP187

>  <Formula> (170)
C7H8ClN

>  <SMILES> (170)
NC1=CC(=CC=C1C)Cl

>  <Rat_Female_NTP> (170)
ND

>  <CAS> (170)
95-79-4

>  <Mouse_Female_NTP> (170)
ND

>  <Synonyms> (170)
1-amino-3-chloro-6-methylbenzene; 2-Amino-4-Chlorotoluene; red kb base; spectrolene red kb; stable red kb base; 2-Methyl-5-Chloroaniline; 3-chloro-6-methylaniline; 4-chloro-2-aminotoluene; 5-chloro-2-methyl-benzamine; 5-chloro-2-methylaniline; 5-Chloro-2-Methylbenzenamine; acco fast red kb base; ansibase red kb; azoene fast red kb base; azoic diazo component 32; C.I. 37090; C.I. Azoic Diazo Component No. 32; fast red kb salt; fast red kb amine; fast red kb base; fast red kbs salt; fast red kb salt supra; genazo red kb soln; hiltonil fast red kb base; lake red bk base; metrogen red former kb soln; naphthosol fast red kb base; pharmazoid red kb.

$$$$
171
 

 34 35  0  0  0  0  0  0  0  0999 V2000
   -5.6628    0.1965   -2.0437 C   0  0  0  0  0  0  0  0  0  1  0  0
   -5.7508   -1.1971   -2.0472 C   0  0  0  0  0  0  0  0  0  2  0  0
   -4.5822   -1.9585   -2.0450 C   0  0  0  0  0  0  0  0  0  3  0  0
   -3.3326   -1.3328   -2.0385 C   0  0  0  0  0  0  0  0  0  4  0  0
   -3.2251    0.0667   -2.0323 C   0  0  0  0  0  0  0  0  0  5  0  0
   -4.4142    0.8178   -2.0373 C   0  0  0  0  0  0  0  0  0  6  0  0
   -1.9417    0.7894   -2.0498 C   0  0  0  0  0  0  0  0  0  7  0  0
   -0.7128    0.2347   -2.0412 C   0  0  0  0  0  0  0  0  0  8  0  0
    0.5627    1.0403   -2.1122 C   0  0  0  0  0  0  0  0  0  9  0  0
    1.4106    0.7378   -1.0171 O   0  0  0  0  0  0  0  0  0 10  0  0
    2.6300    1.3566   -0.9900 C   0  0  0  0  0  0  0  0  0 11  0  0
    3.5954    1.1160    0.1098 C   0  0  0  0  0  0  0  0  0 12  0  0
    2.9386    2.1318   -1.8950 O   0  0  0  0  0  0  0  0  0 13  0  0
    3.2452    0.2346    1.1527 C   0  0  0  0  0  0  0  0  0 14  0  0
    4.1279   -0.0103    2.1981 C   0  0  0  0  0  0  0  0  0 15  0  0
    5.3837    0.6176    2.2300 C   0  0  0  0  0  0  0  0  0 16  0  0
    5.7487    1.4877    1.2115 C   0  0  0  0  0  0  0  0  0 17  0  0
    4.8606    1.7450    0.1434 C   0  0  0  0  0  0  0  0  0 18  0  0
    5.2725    2.6161   -0.8424 N   0  0  0  0  0  0  0  0  0 19  0  0
   -6.5822    0.8044   -2.0513 H   0  0  0  0  0  0  0  0  0 20  0  0
   -6.7359   -1.6906   -2.0567 H   0  0  0  0  0  0  0  0  0 21  0  0
   -4.6480   -3.0589   -2.0543 H   0  0  0  0  0  0  0  0  0 22  0  0
   -2.4408   -1.9770   -2.0473 H   0  0  0  0  0  0  0  0  0 23  0  0
   -4.3767    1.9196   -2.0428 H   0  0  0  0  0  0  0  0  0 24  0  0
   -1.9855    1.8914   -2.0914 H   0  0  0  0  0  0  0  0  0 25  0  0
   -0.5797   -0.8575   -2.0061 H   0  0  0  0  0  0  0  0  0 26  0  0
    0.3441    2.1324   -2.1067 H   0  0  0  0  0  0  0  0  0 27  0  0
    1.0820    0.7736   -3.0622 H   0  0  0  0  0  0  0  0  0 28  0  0
    2.2679   -0.2740    1.1581 H   0  0  0  0  0  0  0  0  0 29  0  0
    3.8435   -0.7008    3.0090 H   0  0  0  0  0  0  0  0  0 30  0  0
    6.0785    0.4193    3.0622 H   0  0  0  0  0  0  0  0  0 31  0  0
    6.7359    1.9766    1.2420 H   0  0  0  0  0  0  0  0  0 32  0  0
    6.2211    3.0589   -0.7747 H   0  0  0  0  0  0  0  0  0 33  0  0
    4.6214    2.8151   -1.6416 H   0  0  0  0  0  0  0  0  0 34  0  0
  1  2  2  0  0  0  0
  1  6  1  0  0  0  0
  1 20  1  0  0  0  0
  2  3  1  0  0  0  0
  2 21  1  0  0  0  0
  3  4  2  0  0  0  0
  3 22  1  0  0  0  0
  4  5  1  0  0  0  0
  4 23  1  0  0  0  0
  5  6  2  0  0  0  0
  5  7  1  0  0  0  0
  6 24  1  0  0  0  0
  7  8  2  0  0  0  0
  7 25  1  0  0  0  0
  8  9  1  0  0  0  0
  8 26  1  0  0  0  0
  9 10  1  1  0  0  0
  9 27  1  0  0  0  0
  9 28  1  6  0  0  0
 10 11  1  0  0  0  0
 11 12  1  1  0  0  0
 11 13  2  0  0  0  0
 12 14  2  0  0  0  0
 12 18  1  0  0  0  0
 14 15  1  1  0  0  0
 14 29  1  0  0  0  0
 15 16  2  0  0  0  0
 15 30  1  1  0  0  0
 16 17  1  6  0  0  0
 16 31  1  1  0  0  0
 17 18  2  0  0  0  0
 17 32  1  0  0  0  0
 18 19  1  6  0  0  0
 19 33  1  0  0  0  0
 19 34  1  6  0  0  0
M  END
>  <Substance ID> (171)
171

>  <Mouse_Female_Canc> (171)
3

>  <SAL> (171)
1

>  <Rat_Male_Canc> (171)
3

>  <TD50_Rat> (171)
12100

>  <TD50_Mouse> (171)
2580

>  <Rat_Female_Canc> (171)
1

>  <Canc> (171)
3

>  <MolWeight> (171)
253.30

>  <Mouse_Male_Canc> (171)
3

>  <Mouse_Male_NTP> (171)
ND

>  <ChemName> (171)
Cinnamyl Anthranilate

>  <Rat_Male_NTP> (171)
ND

>  <Reference> (171)
NTP196

>  <Formula> (171)
C16H15NO2

>  <SMILES> (171)
NC1=C(C=CC=C1)C(=O)OC/C=C/C2=CC=CC=C2

>  <Rat_Female_NTP> (171)
ND

>  <CAS> (171)
87-29-6

>  <Mouse_Female_NTP> (171)
ND

>  <Synonyms> (171)
2-aminobenzoic acid 3-phenyl-2-propenyl ester; 2-Propen-1-ol, 3-phenyl-, 2-aminobenzoate; 3-phenyl-2-propen-1-yl anthranilate; 3-phenyl-2-propenyl anthranilate; Anthranilic acid cinnamyl ester; cinnamyl alcohol, anthranilate; cinnamyl 2-aminobenzoate.

$$$$
172


 21 21  0  0  0  0  0  0  0  0999 V2000
    5.0198  -58.8365   -0.0019 C   0  0  0  0  0  0  0  0  0  0  0  0
    4.9075  -60.1636   -0.0012 C   0  0  0  0  0  0  0  0  0  0  0  0
    7.3155  -60.4277    0.0003 C   0  0  0  0  0  0  0  0  0  0  0  0
    7.4398  -58.9756    0.0007 C   0  0  0  0  0  0  0  0  0  0  0  0
    6.1110  -60.9999   -0.0002 C   0  0  0  0  0  0  0  0  0  0  0  0
    6.3477  -58.2143   -0.0003 C   0  0  0  0  0  0  0  0  0  0  0  0
    6.4681  -56.8249    0.0001 N   0  0  0  0  0  0  0  0  0  0  0  0
    5.9850  -62.3956   -0.0002 O   0  0  0  0  0  0  0  0  0  0  0  0
    8.7994  -58.3434    0.0022 C   0  0  0  0  0  0  0  0  0  0  0  0
    7.2743  -63.0307   -0.0010 C   0  0  0  0  0  0  0  0  0  0  0  0
    4.1993  -58.2649   -0.0035 H   0  0  0  0  0  0  0  0  0  0  0  0
    4.0026  -60.5892   -0.0013 H   0  0  0  0  0  0  0  0  0  0  0  0
    8.1373  -60.9976    0.0004 H   0  0  0  0  0  0  0  0  0  0  0  0
    7.3740  -56.4015    0.0012 H   0  0  0  0  0  0  0  0  0  0  0  0
    5.6485  -56.2520   -0.0008 H   0  0  0  0  0  0  0  0  0  0  0  0
    8.7046  -57.3479    0.0023 H   0  0  0  0  0  0  0  0  0  0  0  0
    9.3016  -58.6298   -0.8137 H   0  0  0  0  0  0  0  0  0  0  0  0
    9.3000  -58.6302    0.8191 H   0  0  0  0  0  0  0  0  0  0  0  0
    7.1572  -64.0238   -0.0011 H   0  0  0  0  0  0  0  0  0  0  0  0
    7.7825  -62.7555    0.8151 H   0  0  0  0  0  0  0  0  0  0  0  0
    7.7815  -62.7553   -0.8177 H   0  0  0  0  0  0  0  0  0  0  0  0
  1  2  2  0  0  0  0
  3  4  1  0  0  0  0
  1  6  1  0  0  0  0
  2  5  1  0  0  0  0
  5  3  2  0  0  0  0
  4  6  2  0  0  0  0
  6  7  1  0  0  0  0
  5  8  1  0  0  0  0
  4  9  1  0  0  0  0
  8 10  1  0  0  0  0
  1 11  1  0  0  0  0
  2 12  1  0  0  0  0
  3 13  1  0  0  0  0
  7 14  1  0  0  0  0
  7 15  1  0  0  0  0
  9 16  1  0  0  0  0
  9 17  1  0  0  0  0
  9 18  1  0  0  0  0
 10 19  1  0  0  0  0
 10 20  1  0  0  0  0
 10 21  1  0  0  0  0
M  END
>  <Substance ID> (172)
172

>  <Mouse_Female_Canc> (172)
1

>  <SAL> (172)
3

>  <Rat_Male_Canc> (172)
3

>  <TD50_Rat> (172)
470

>  <TD50_Mouse> (172)
NP

>  <Rat_Female_Canc> (172)
3

>  <Canc> (172)
3

>  <MolWeight> (172)
137.18

>  <Mouse_Male_Canc> (172)
ND

>  <Mouse_Male_NTP> (172)
ND

>  <ChemName> (172)
meta-Cresidine 

>  <Rat_Male_NTP> (172)
ND

>  <Reference> (172)
NTP105

>  <Formula> (172)
C8H11NO

>  <SMILES> (172)
COC1=CC(=C(C=C1)N)C

>  <Rat_Female_NTP> (172)
ND

>  <CAS> (172)
102-50-1

>  <Mouse_Female_NTP> (172)
ND

>  <Synonyms> (172)
2-amino-5-methoxytoluene; 2-methyl-p-anisidine; 4-methoxy-2-methylaniline.

$$$$
173


 21 21  0  0  0  0  0  0  0  0999 V2000
    2.1055  -67.5219   -0.0036 C   0  0  0  0  0  0  0  0  0  0  0  0
    2.2525  -68.8440   -0.0011 C   0  0  0  0  0  0  0  0  0  0  0  0
    4.6690  -68.6458    0.0036 C   0  0  0  0  0  0  0  0  0  0  0  0
    4.5053  -67.1900    0.0009 C   0  0  0  0  0  0  0  0  0  0  0  0
    3.5972  -69.4365    0.0025 C   0  0  0  0  0  0  0  0  0  0  0  0
    3.2845  -66.6563   -0.0027 C   0  0  0  0  0  0  0  0  0  0  0  0
    5.9475  -69.2045    0.0067 N   0  0  0  0  0  0  0  0  0  0  0  0
    3.7595  -70.8244    0.0043 O   0  0  0  0  0  0  0  0  0  0  0  0
    3.1167  -65.1666   -0.0065 C   0  0  0  0  0  0  0  0  0  0  0  0
    2.4829  -71.4760    0.0008 C   0  0  0  0  0  0  0  0  0  0  0  0
    1.1898  -67.1202   -0.0061 H   0  0  0  0  0  0  0  0  0  0  0  0
    1.4464  -69.4358   -0.0017 H   0  0  0  0  0  0  0  0  0  0  0  0
    5.3102  -66.5965    0.0018 H   0  0  0  0  0  0  0  0  0  0  0  0
    6.0589  -70.1982    0.0085 H   0  0  0  0  0  0  0  0  0  0  0  0
    6.7524  -68.6111    0.0070 H   0  0  0  0  0  0  0  0  0  0  0  0
    4.0161  -64.7294   -0.0053 H   0  0  0  0  0  0  0  0  0  0  0  0
    2.6091  -64.8858    0.8081 H   0  0  0  0  0  0  0  0  0  0  0  0
    2.6130  -64.8894   -0.8247 H   0  0  0  0  0  0  0  0  0  0  0  0
    2.6140  -72.4673    0.0021 H   0  0  0  0  0  0  0  0  0  0  0  0
    1.9739  -71.2087   -0.8174 H   0  0  0  0  0  0  0  0  0  0  0  0
    1.9688  -71.2072    0.8154 H   0  0  0  0  0  0  0  0  0  0  0  0
  1  2  2  0  0  0  0
  3  4  1  0  0  0  0
  1  6  1  0  0  0  0
  2  5  1  0  0  0  0
  5  3  2  0  0  0  0
  4  6  2  0  0  0  0
  3  7  1  0  0  0  0
  5  8  1  0  0  0  0
  6  9  1  0  0  0  0
  8 10  1  0  0  0  0
  1 11  1  0  0  0  0
  2 12  1  0  0  0  0
  4 13  1  0  0  0  0
  7 14  1  0  0  0  0
  7 15  1  0  0  0  0
  9 16  1  0  0  0  0
  9 17  1  0  0  0  0
  9 18  1  0  0  0  0
 10 19  1  0  0  0  0
 10 20  1  0  0  0  0
 10 21  1  0  0  0  0
M  END
>  <Substance ID> (173)
173

>  <Mouse_Female_Canc> (173)
3

>  <SAL> (173)
3

>  <Rat_Male_Canc> (173)
3

>  <TD50_Rat> (173)
98

>  <TD50_Mouse> (173)
54.3

>  <Rat_Female_Canc> (173)
3

>  <Canc> (173)
3

>  <MolWeight> (173)
137.18

>  <Mouse_Male_Canc> (173)
3

>  <Mouse_Male_NTP> (173)
ND

>  <ChemName> (173)
para-Cresidine 

>  <Rat_Male_NTP> (173)
ND

>  <Reference> (173)
NTP142

>  <Formula> (173)
C8H11NO

>  <SMILES> (173)
NC1=CC(=CC=C1OC)C

>  <Rat_Female_NTP> (173)
ND

>  <CAS> (173)
120-71-8

>  <Mouse_Female_NTP> (173)
ND

>  <Synonyms> (173)
1-amino-2-methoxy-5-methylbenzene; 2-amino-4-methylanisole; 2-amino-p-cresol methyl ether; 2-methoxy-5-methylaniline; 3-amino-4-methoxytoluene; m-amino-p-cresol, methyl ether; para-CRESIDINE (2-METHOXY-5-METHYLANILINE); 4-methyl-2-aminoanisole; 5-Methyl-o-Anisidine; azoic red 36; C.I. azoic red 83; Cresidine; krezidine.

$$$$
174


 15 15  0  0  0  0  0  0  0  0999 V2000
    4.7563  -81.2482    0.0002 C   0  0  0  0  0  0  0  0  0  0  0  0
    4.8339  -82.5776    0.0005 C   0  0  0  0  0  0  0  0  0  0  0  0
    7.2543  -82.5026   -0.0010 C   0  0  0  0  0  0  0  0  0  0  0  0
    7.1693  -81.0413   -0.0007 C   0  0  0  0  0  0  0  0  0  0  0  0
    6.1419  -83.2343   -0.0005 C   0  0  0  0  0  0  0  0  0  0  0  0
    5.9797  -80.4436    0.0009 C   0  0  0  0  0  0  0  0  0  0  0  0
    5.8987  -79.0503    0.0025 N   0  0  0  0  0  0  0  0  0  0  0  0
    4.7102  -78.4531    0.0091 N   0  0  0  0  0  0  0  0  0  0  0  0
    7.0058  -78.3221   -0.0041 O   0  5  0  0  0  0  0  0  0  0  0  0
    4.6421  -77.2794   -0.0067 O   0  0  0  0  0  0  0  0  0  0  0  0
    3.8627  -80.7995   -0.0003 H   0  0  0  0  0  0  0  0  0  0  0  0
    3.9985  -83.1272    0.0013 H   0  0  0  0  0  0  0  0  0  0  0  0
    8.1479  -82.9514   -0.0017 H   0  0  0  0  0  0  0  0  0  0  0  0
    8.0049  -80.4919   -0.0016 H   0  0  0  0  0  0  0  0  0  0  0  0
    6.2001  -84.2326   -0.0008 H   0  0  0  0  0  0  0  0  0  0  0  0
  1  2  2  0  0  0  0
  3  4  1  0  0  0  0
  1  6  1  0  0  0  0
  2  5  1  0  0  0  0
  5  3  2  0  0  0  0
  4  6  2  0  0  0  0
  6  7  1  0  0  0  0
  7  8  1  0  0  0  0
  7  9  1  0  0  0  0
  8 10  2  0  0  0  0
  1 11  1  0  0  0  0
  2 12  1  0  0  0  0
  3 13  1  0  0  0  0
  4 14  1  0  0  0  0
  5 15  1  0  0  0  0
M  END
>  <Substance ID> (174)
174

>  <Mouse_Female_Canc> (174)
3

>  <SAL> (174)
3

>  <Rat_Male_Canc> (174)
3

>  <TD50_Rat> (174)
8.35

>  <TD50_Mouse> (174)
585

>  <Rat_Female_Canc> (174)
3

>  <Canc> (174)
3

>  <MolWeight> (174)
137.13

>  <Mouse_Male_Canc> (174)
3

>  <Mouse_Male_NTP> (174)
ND

>  <ChemName> (174)
Cupferron

>  <Rat_Male_NTP> (174)
ND

>  <Reference> (174)
NTP100

>  <Formula> (174)
C6H5N2O2

>  <SMILES> (174)
C1(N(N=O)[O-])=CC=CC=C1

>  <Rat_Female_NTP> (174)
ND

>  <CAS> (174)
135-20-6

>  <Mouse_Female_NTP> (174)
ND

>  <Synonyms> (174)
Ammonium Nitrosophenylhydroxylamine; ammonium N-nitrosophenylhydroxylamine; Ammonium salt of N-hydroxy-N-nitrosoaniline; N-hydroxy-N-nitrosobenzenamine ammonium salt; N-nitroso-N-phenylhydroxylamine, ammonium salt; N-nitrosophenylhydroxylamine ammonium salt.

$$$$
175


 29 30  0  0  0  0  0  0  0  0999 V2000
    5.7555  -90.4991   -0.4572 C   0  0  0  0  0  0  0  0  0  0  0  0
    6.3480  -91.6700   -0.2308 C   0  0  0  0  0  0  0  0  0  0  0  0
    8.4024  -90.5782    0.4546 C   0  0  0  0  0  0  0  0  0  0  0  0
    7.7544  -89.2885    0.1890 C   0  0  0  0  0  0  0  0  0  0  0  0
    7.7302  -91.7115    0.2499 C   0  0  0  0  0  0  0  0  0  0  0  0
    6.4946  -89.2514   -0.2420 C   0  0  0  0  0  0  0  0  0  0  0  0
    4.4301  -90.4604   -0.8979 N   0  0  0  0  0  0  0  0  0  0  0  0
   10.0564  -90.6384    1.1087 S   0  0  0  0  0  0  0  0  0  0  0  0
   11.7040  -90.5818    0.4381 C   0  0  0  0  0  0  0  0  0  0  0  0
   10.0552  -89.2361    0.5260 O   0  0  0  0  0  0  0  0  0  0  0  0
   10.0515  -91.9968    0.4370 O   0  0  0  0  0  0  0  0  0  0  0  0
   12.3709  -91.7169    0.2262 C   0  0  0  0  0  0  0  0  0  0  0  0
   14.3437  -90.5093   -0.4941 C   0  0  0  0  0  0  0  0  0  0  0  0
   13.6105  -89.2596   -0.2696 C   0  0  0  0  0  0  0  0  0  0  0  0
   13.7492  -91.6788   -0.2657 C   0  0  0  0  0  0  0  0  0  0  0  0
   12.3541  -89.2937    0.1714 C   0  0  0  0  0  0  0  0  0  0  0  0
   15.6655  -90.4738   -0.9456 N   0  0  0  0  0  0  0  0  0  0  0  0
    5.8484  -92.5216   -0.3891 H   0  0  0  0  0  0  0  0  0  0  0  0
    8.2590  -88.4370    0.3317 H   0  0  0  0  0  0  0  0  0  0  0  0
    8.1712  -92.5917    0.4251 H   0  0  0  0  0  0  0  0  0  0  0  0
    6.0528  -88.3719   -0.4189 H   0  0  0  0  0  0  0  0  0  0  0  0
    3.9852  -89.5811   -1.0680 H   0  0  0  0  0  0  0  0  0  0  0  0
    3.9264  -91.3119   -1.0433 H   0  0  0  0  0  0  0  0  0  0  0  0
   11.9286  -92.5961    0.4038 H   0  0  0  0  0  0  0  0  0  0  0  0
   14.0540  -88.3812   -0.4476 H   0  0  0  0  0  0  0  0  0  0  0  0
   14.2447  -92.5317   -0.4304 H   0  0  0  0  0  0  0  0  0  0  0  0
   11.8536  -88.4410    0.3207 H   0  0  0  0  0  0  0  0  0  0  0  0
   16.1647  -91.3267   -1.0985 H   0  0  0  0  0  0  0  0  0  0  0  0
   16.1123  -89.5956   -1.1159 H   0  0  0  0  0  0  0  0  0  0  0  0
  1  2  2  0  0  0  0
  3  4  1  0  0  0  0
  1  6  1  0  0  0  0
  2  5  1  0  0  0  0
  5  3  2  0  0  0  0
  4  6  2  0  0  0  0
  1  7  1  0  0  0  0
  3  8  1  0  0  0  0
  8  9  1  0  0  0  0
  8 10  2  0  0  0  0
  8 11  2  0  0  0  0
  9 12  2  0  0  0  0
 13 14  1  0  0  0  0
  9 16  1  0  0  0  0
 12 15  1  0  0  0  0
 15 13  2  0  0  0  0
 14 16  2  0  0  0  0
 13 17  1  0  0  0  0
  2 18  1  0  0  0  0
  4 19  1  0  0  0  0
  5 20  1  0  0  0  0
  6 21  1  0  0  0  0
  7 22  1  0  0  0  0
  7 23  1  0  0  0  0
 12 24  1  0  0  0  0
 14 25  1  0  0  0  0
 15 26  1  0  0  0  0
 16 27  1  0  0  0  0
 17 28  1  0  0  0  0
 17 29  1  0  0  0  0
M  END
>  <Substance ID> (175)
175

>  <Mouse_Female_Canc> (175)
1

>  <SAL> (175)
1

>  <Rat_Male_Canc> (175)
3

>  <TD50_Rat> (175)
22.4

>  <TD50_Mouse> (175)
NP

>  <Rat_Female_Canc> (175)
1

>  <Canc> (175)
3

>  <MolWeight> (175)
248.30

>  <Mouse_Male_Canc> (175)
1

>  <Mouse_Male_NTP> (175)
ND

>  <ChemName> (175)
Dapsone

>  <Rat_Male_NTP> (175)
ND

>  <Reference> (175)
NTP20

>  <Formula> (175)
C12H12N2O2S

>  <SMILES> (175)
O=S(=O)(C1=CC=C(C=C1)N)C2=CC=C(C=C2)N

>  <Rat_Female_NTP> (175)
ND

>  <CAS> (175)
80-08-0

>  <Mouse_Female_NTP> (175)
ND

>  <Synonyms> (175)
1,1'-sulfonylbis(4-aminobenzene); 1358F; Metabolite C; 4,4'-Diaminodiphenyl sulfone; 4,4'-diaminophenyl sulfone; 4,4'-sulfonylbisbenzamine; 4,4-Sulfonyldianiline; 4,4'-Sulfonylbisbenzenamine; 4-Aminophenyl sulfone; Acedapsone; Araldite HT; Avlosulfone; Avsulfor; Bis(4-aminophenyl)sulfone; Diaminodiphenylsulfone; Diaphenylsulfone; Diphenasone; Diphone; Disulone; Croysulfone; DADPS; dapsonum; DDS; DSS; dubronax; Dubronaz; Dumitone; Eporal; F 1358; ICI; Novophone; Protogen; Sulfadione; Sulfanona-mae; Sulfona; sulfona-mae; sulfon-mere; sulfone UCB; Sulfonyldianiline; Sumicure S; tarimyl; Udolac; WR 448.

$$$$
176


 26 27  0  0  0  0  0  0  0  0999 V2000
   29.8595   -1.6982   -0.0399 C   0  0  0  0  0  0  0  0  0  0  0  0
   29.9259   -3.0197   -0.0445 C   0  0  0  0  0  0  0  0  0  0  0  0
   32.3779   -3.0248   -0.0022 C   0  0  0  0  0  0  0  0  0  0  0  0
   32.2817   -1.5373   -0.0016 C   0  0  0  0  0  0  0  0  0  0  0  0
   31.2181   -3.6807   -0.0236 C   0  0  0  0  0  0  0  0  0  0  0  0
   31.0965   -0.9180   -0.0182 C   0  0  0  0  0  0  0  0  0  0  0  0
   28.3150   -0.9209   -0.0599 Cl  0  0  0  0  0  0  0  0  0  0  0  0
   33.7732   -3.8258    0.0271 C   0  0  0  0  0  0  0  0  0  0  0  0
   33.7648   -5.2149    0.0667 C   0  0  0  0  0  0  0  0  0  0  0  0
   32.3235   -6.1982    0.0938 Cl  0  0  0  0  0  0  0  0  0  0  0  0
   35.1921   -6.2171    0.0997 Cl  0  0  0  0  0  0  0  0  0  0  0  0
   35.1761   -3.0397    0.0097 C   0  0  0  0  0  0  0  0  0  0  0  0
   36.3283   -3.7112    0.0215 C   0  0  0  0  0  0  0  0  0  0  0  0
   37.7146   -1.7487   -0.0246 C   0  0  0  0  0  0  0  0  0  0  0  0
   36.4840   -0.9554   -0.0437 C   0  0  0  0  0  0  0  0  0  0  0  0
   37.6304   -3.0679    0.0057 C   0  0  0  0  0  0  0  0  0  0  0  0
   35.2913   -1.5569   -0.0252 C   0  0  0  0  0  0  0  0  0  0  0  0
   39.2711   -0.9921   -0.0423 Cl  0  0  0  0  0  0  0  0  0  0  0  0
   29.0864   -3.5628   -0.0624 H   0  0  0  0  0  0  0  0  0  0  0  0
   33.1198   -0.9918    0.0115 H   0  0  0  0  0  0  0  0  0  0  0  0
   31.2391   -4.6805   -0.0252 H   0  0  0  0  0  0  0  0  0  0  0  0
   31.0559    0.0811   -0.0158 H   0  0  0  0  0  0  0  0  0  0  0  0
   36.2939   -4.7104    0.0423 H   0  0  0  0  0  0  0  0  0  0  0  0
   36.5367    0.0429   -0.0707 H   0  0  0  0  0  0  0  0  0  0  0  0
   38.4626   -3.6222    0.0176 H   0  0  0  0  0  0  0  0  0  0  0  0
   34.4606   -1.0002   -0.0351 H   0  0  0  0  0  0  0  0  0  0  0  0
  1  2  2  0  0  0  0
  3  4  1  0  0  0  0
  1  6  1  0  0  0  0
  2  5  1  0  0  0  0
  5  3  2  0  0  0  0
  4  6  2  0  0  0  0
  1  7  1  0  0  0  0
  3  8  1  0  0  0  0
  8  9  2  0  0  0  0
  9 10  1  0  0  0  0
  9 11  1  0  0  0  0
  8 12  1  0  0  0  0
 12 13  2  0  0  0  0
 14 15  1  0  0  0  0
 12 17  1  0  0  0  0
 13 16  1  0  0  0  0
 16 14  2  0  0  0  0
 15 17  2  0  0  0  0
 14 18  1  0  0  0  0
  2 19  1  0  0  0  0
  4 20  1  0  0  0  0
  5 21  1  0  0  0  0
  6 22  1  0  0  0  0
 13 23  1  0  0  0  0
 15 24  1  0  0  0  0
 16 25  1  0  0  0  0
 17 26  1  0  0  0  0
M  END
>  <Substance ID> (176)
176

>  <Mouse_Female_Canc> (176)
3

>  <SAL> (176)
1

>  <Rat_Male_Canc> (176)
1

>  <TD50_Rat> (176)
NP

>  <TD50_Mouse> (176)
12.5

>  <Rat_Female_Canc> (176)
1

>  <Canc> (176)
3

>  <MolWeight> (176)
318.03

>  <Mouse_Male_Canc> (176)
3

>  <Mouse_Male_NTP> (176)
ND

>  <ChemName> (176)
p,p'-DDE

>  <Rat_Male_NTP> (176)
ND

>  <Reference> (176)
NTP131

>  <Formula> (176)
C14H8Cl4

>  <SMILES> (176)
ClC(=C(C1=CC=C(C=C1)Cl)C2=CC=C(C=C2)Cl)Cl

>  <Rat_Female_NTP> (176)
ND

>  <CAS> (176)
72-55-9

>  <Mouse_Female_NTP> (176)
ND

>  <Synonyms> (176)
1,1-dichloro-2,2-bis(p-chlorophenyl)ethylene; 2,2-bis(p-chlorophenyl)-1,1-dichloroethene; 2,2-bis(4-chlorophenyl)-1,1-dichloroethylene; p,p'-dichlorodiphenyl dichloroethylene; P,P'-DICHLORODIPHENYLDICHLOROETHYLENE (DDE); p,p'-Dichlorodiphenyldichloroethylene (DDE) ; p,p-DDE; 4,4'-DDE; p,p[-DDE; Dichlorodiphenyldichloroethylene; DDE; ddt dehydrochloride.

$$$$
177


 23 24  0  0  0  0  0  0  0  0999 V2000
   31.0566  -11.9090    0.0125 C   0  0  0  0  0  0  0  0  0  0  0  0
   31.6218  -13.0995   -0.0177 C   0  0  0  0  0  0  0  0  0  0  0  0
   33.9033  -12.1813   -0.0160 C   0  0  0  0  0  0  0  0  0  0  0  0
   33.1966  -10.7954    0.0222 C   0  0  0  0  0  0  0  0  0  0  0  0
   33.0686  -13.2365   -0.0344 C   0  0  0  0  0  0  0  0  0  0  0  0
   31.8678  -10.7353    0.0329 C   0  0  0  0  0  0  0  0  0  0  0  0
   31.0300   -9.0312    0.0800 Br  0  0  0  0  0  0  0  0  0  0  0  0
   29.1653  -11.7514    0.0366 Br  0  0  0  0  0  0  0  0  0  0  0  0
   30.5316  -14.6551   -0.0371 Br  0  0  0  0  0  0  0  0  0  0  0  0
   33.7606  -14.9964   -0.0772 Br  0  0  0  0  0  0  0  0  0  0  0  0
   35.3454  -12.6501   -0.0308 O   0  0  0  0  0  0  0  0  0  0  0  0
   33.9486   -9.1084    0.0698 Br  0  0  0  0  0  0  0  0  0  0  0  0
   36.7891  -12.1854   -0.0257 C   0  0  0  0  0  0  0  0  0  0  0  0
   37.6201  -13.2435   -0.0139 C   0  0  0  0  0  0  0  0  0  0  0  0
   39.6366  -11.9223    0.0196 C   0  0  0  0  0  0  0  0  0  0  0  0
   38.8298  -10.7457   -0.0017 C   0  0  0  0  0  0  0  0  0  0  0  0
   39.0672  -13.1112    0.0102 C   0  0  0  0  0  0  0  0  0  0  0  0
   37.5009  -10.8012   -0.0285 C   0  0  0  0  0  0  0  0  0  0  0  0
   36.7559   -9.1108   -0.0773 Br  0  0  0  0  0  0  0  0  0  0  0  0
   39.6742   -9.0441   -0.0002 Br  0  0  0  0  0  0  0  0  0  0  0  0
   41.5281  -11.7708    0.0584 Br  0  0  0  0  0  0  0  0  0  0  0  0
   40.1519  -14.6706    0.0317 Br  0  0  0  0  0  0  0  0  0  0  0  0
   36.9220  -15.0014   -0.0168 Br  0  0  0  0  0  0  0  0  0  0  0  0
  1  2  2  0  0  0  0
  3  4  1  0  0  0  0
  1  6  1  0  0  0  0
  2  5  1  0  0  0  0
  5  3  2  0  0  0  0
  4  6  2  0  0  0  0
  6  7  1  0  0  0  0
  1  8  1  0  0  0  0
  2  9  1  0  0  0  0
  5 10  1  0  0  0  0
  3 11  1  0  0  0  0
  4 12  1  0  0  0  0
 11 13  1  0  0  0  0
 13 14  2  0  0  0  0
 15 16  1  0  0  0  0
 13 18  1  0  0  0  0
 14 17  1  0  0  0  0
 17 15  2  0  0  0  0
 16 18  2  0  0  0  0
 18 19  1  0  0  0  0
 16 20  1  0  0  0  0
 15 21  1  0  0  0  0
 17 22  1  0  0  0  0
 14 23  1  0  0  0  0
M  END
>  <Substance ID> (177)
177

>  <Mouse_Female_Canc> (177)
1

>  <SAL> (177)
1

>  <Rat_Male_Canc> (177)
3

>  <TD50_Rat> (177)
3340

>  <TD50_Mouse> (177)
NP

>  <Rat_Female_Canc> (177)
3

>  <Canc> (177)
3

>  <MolWeight> (177)
959.17

>  <Mouse_Male_Canc> (177)
2

>  <Mouse_Male_NTP> (177)
EE

>  <ChemName> (177)
Decabromodiphenyl Oxide

>  <Rat_Male_NTP> (177)
SE

>  <Reference> (177)
NTP309

>  <Formula> (177)
C12Br10O

>  <SMILES> (177)
BrC1=C(C(=C(C(=C1Br)Br)Br)Br)OC2=C(C(=C(C(=C2Br)Br)Br)Br)Br

>  <Rat_Female_NTP> (177)
SE

>  <CAS> (177)
1163-19-5

>  <Mouse_Female_NTP> (177)
NE

>  <Synonyms> (177)
1,1'-oxybis(2,3,4,5,6-pentabromobenzene); berkflam b 10E; bis(pentabromophenyl) ether; BR 55N; bromkal 82-ode; bromkal 83-10de; DE 83R; DBDPO; Decabromodiphenyl ether; Decabromodiphenyl ether; DPBPO; FR 300; fr 300ba; FRP 53; Pentabromodiphenyl ether; pentabromophenyl ether; saytex 102; saytex 102E; tardex 100.

$$$$
178


 20 20  0  0  0  0  0  0  0  0999 V2000
   33.2869  -22.3091   -0.0020 C   0  0  0  0  0  0  0  0  0  0  0  0
   33.1715  -23.6346   -0.0032 C   0  0  0  0  0  0  0  0  0  0  0  0
   35.5789  -23.9062    0.0005 C   0  0  0  0  0  0  0  0  0  0  0  0
   35.7084  -22.4467    0.0006 C   0  0  0  0  0  0  0  0  0  0  0  0
   34.3720  -24.4687   -0.0000 C   0  0  0  0  0  0  0  0  0  0  0  0
   34.6170  -21.6835   -0.0002 C   0  0  0  0  0  0  0  0  0  0  0  0
   34.7424  -20.2939   -0.0002 O   0  0  0  0  0  0  0  0  0  0  0  0
   36.9737  -21.8566    0.0014 N   0  0  0  0  0  0  0  0  0  0  0  0
   34.2508  -25.8568    0.0019 N   0  0  0  0  0  0  0  0  0  0  0  0
   33.4475  -19.6785    0.0007 C   0  0  0  0  0  0  0  0  0  0  0  0
   32.4667  -21.7370   -0.0024 H   0  0  0  0  0  0  0  0  0  0  0  0
   32.2660  -24.0590   -0.0062 H   0  0  0  0  0  0  0  0  0  0  0  0
   36.3977  -24.4803    0.0008 H   0  0  0  0  0  0  0  0  0  0  0  0
   37.0609  -20.8605    0.0015 H   0  0  0  0  0  0  0  0  0  0  0  0
   37.7929  -22.4302    0.0019 H   0  0  0  0  0  0  0  0  0  0  0  0
   35.0700  -26.4303    0.0040 H   0  0  0  0  0  0  0  0  0  0  0  0
   33.3446  -26.2796    0.0010 H   0  0  0  0  0  0  0  0  0  0  0  0
   33.5506  -18.6838    0.0007 H   0  0  0  0  0  0  0  0  0  0  0  0
   32.9442  -19.9609    0.8175 H   0  0  0  0  0  0  0  0  0  0  0  0
   32.9431  -19.9608   -0.8153 H   0  0  0  0  0  0  0  0  0  0  0  0
  1  2  2  0  0  0  0
  3  4  1  0  0  0  0
  1  6  1  0  0  0  0
  2  5  1  0  0  0  0
  5  3  2  0  0  0  0
  4  6  2  0  0  0  0
  6  7  1  0  0  0  0
  4  8  1  0  0  0  0
  5  9  1  0  0  0  0
  7 10  1  0  0  0  0
  1 11  1  0  0  0  0
  2 12  1  0  0  0  0
  3 13  1  0  0  0  0
  8 14  1  0  0  0  0
  8 15  1  0  0  0  0
  9 16  1  0  0  0  0
  9 17  1  0  0  0  0
 10 18  1  0  0  0  0
 10 19  1  0  0  0  0
 10 20  1  0  0  0  0
M  END
>  <Substance ID> (178)
178

>  <Mouse_Female_Canc> (178)
3

>  <SAL> (178)
3

>  <Rat_Male_Canc> (178)
3

>  <TD50_Rat> (178)
183

>  <TD50_Mouse> (178)
906

>  <Rat_Female_Canc> (178)
3

>  <Canc> (178)
3

>  <MolWeight> (178)
138.17

>  <Mouse_Male_Canc> (178)
3

>  <Mouse_Male_NTP> (178)
ND

>  <ChemName> (178)
2,4-diaminoanisole

>  <Rat_Male_NTP> (178)
ND

>  <Reference> (178)
NTP84

>  <Formula> (178)
C7H10N2O

>  <SMILES> (178)
C1=CC(=CC(=C1OC)N)N

>  <Rat_Female_NTP> (178)
ND

>  <CAS> (178)
615-05-4

>  <Mouse_Female_NTP> (178)
ND

>  <Synonyms> (178)
2,4-Diaminoanisole, 90%; 2,4-DAA; 4-methoxy-1,3-Benzenediamine; 4-methoxy-m-phenylendiamine; 4 Methoxy meta phenylenediamine; 4-MMPD; C.I. 76050; C.I. Oxidation Base 12.

$$$$
179


 19 19  0  0  0  0  0  0  0  0999 V2000
   30.5686  -31.4767   -0.0007 C   0  0  0  0  0  0  0  0  0  0  0  0
   30.5644  -32.8083   -0.0005 C   0  0  0  0  0  0  0  0  0  0  0  0
   32.9856  -32.8808   -0.0006 C   0  0  0  0  0  0  0  0  0  0  0  0
   32.9904  -31.4169   -0.0002 C   0  0  0  0  0  0  0  0  0  0  0  0
   31.8301  -33.5431   -0.0000 C   0  0  0  0  0  0  0  0  0  0  0  0
   31.8390  -30.7477   -0.0001 C   0  0  0  0  0  0  0  0  0  0  0  0
   34.2013  -30.7228   -0.0000 N   0  0  0  0  0  0  0  0  0  0  0  0
   31.8261  -34.9388    0.0008 N   0  0  0  0  0  0  0  0  0  0  0  0
   31.8425  -29.2463    0.0002 C   0  0  0  0  0  0  0  0  0  0  0  0
   29.7040  -30.9743   -0.0012 H   0  0  0  0  0  0  0  0  0  0  0  0
   29.6970  -33.3059   -0.0007 H   0  0  0  0  0  0  0  0  0  0  0  0
   33.8501  -33.3836   -0.0014 H   0  0  0  0  0  0  0  0  0  0  0  0
   34.2045  -29.7228    0.0003 H   0  0  0  0  0  0  0  0  0  0  0  0
   35.0658  -31.2254   -0.0002 H   0  0  0  0  0  0  0  0  0  0  0  0
   32.6907  -35.4413    0.0011 H   0  0  0  0  0  0  0  0  0  0  0  0
   30.9587  -35.4363    0.0010 H   0  0  0  0  0  0  0  0  0  0  0  0
   32.7859  -28.9148    0.0006 H   0  0  0  0  0  0  0  0  0  0  0  0
   31.3717  -28.9116    0.8165 H   0  0  0  0  0  0  0  0  0  0  0  0
   31.3723  -28.9113   -0.8163 H   0  0  0  0  0  0  0  0  0  0  0  0
  1  2  2  0  0  0  0
  3  4  1  0  0  0  0
  1  6  1  0  0  0  0
  2  5  1  0  0  0  0
  5  3  2  0  0  0  0
  4  6  2  0  0  0  0
  4  7  1  0  0  0  0
  5  8  1  0  0  0  0
  6  9  1  0  0  0  0
  1 10  1  0  0  0  0
  2 11  1  0  0  0  0
  3 12  1  0  0  0  0
  7 13  1  0  0  0  0
  7 14  1  0  0  0  0
  8 15  1  0  0  0  0
  8 16  1  0  0  0  0
  9 17  1  0  0  0  0
  9 18  1  0  0  0  0
  9 19  1  0  0  0  0
M  END
>  <Substance ID> (179)
179

>  <Mouse_Female_Canc> (179)
3

>  <SAL> (179)
3

>  <Rat_Male_Canc> (179)
3

>  <TD50_Rat> (179)
2.47

>  <TD50_Mouse> (179)
26.7

>  <Rat_Female_Canc> (179)
3

>  <Canc> (179)
3

>  <MolWeight> (179)
122.17

>  <Mouse_Male_Canc> (179)
1

>  <Mouse_Male_NTP> (179)
ND

>  <ChemName> (179)
2,4-diaminotoluene

>  <Rat_Male_NTP> (179)
ND

>  <Reference> (179)
NTP162

>  <Formula> (179)
C7H10N2

>  <SMILES> (179)
NC1=C(C=CC(=C1)N)C

>  <Rat_Female_NTP> (179)
ND

>  <CAS> (179)
95-80-7

>  <Mouse_Female_NTP> (179)
ND

>  <Synonyms> (179)
1,3-diamino-4-methylbenzene; 2,4-diamino-1-methylbenzene; developer mtd; developer t; eucanine gb; fouramine; fouramine j; fourrine 94; fourrine m; MTD; nako tmt; pelagol grey j; pelagol j; pontamine developer tn; renal md; Toluene-2,4-Diamine; toluenediamine; tolylene-2,4-diamine; Tertral g; zoba gke; zogen developer h; 2,4-diamino-1-toluene; 2,4-diaminotoluol; 2,4-toluenediamine; 3-amino-p-toluidine; 4-Methyl-1,3-benzenediamine; 4-methyl-m-phenylenediamine; 4-Methylphenylene-1,3-diamine; 5-amino-o-toluidine; azogen developer h; benzofur mt; Diaminotoluene, 2,4-; C.I. 76035; C.I. oxidation base; C.I. oxidation base 20; C.I. oxidation base 200; C.I. oxidation base 35; developer 14; developer b; developer db; developer dbj; developer mc; developer mt; developer mt-cf.

$$$$
180


 22 24  0  0  0  0  0  0  0  0999 V2000
   30.1247  -42.3431   -0.0003 C   0  0  0  0  0  0  0  0  0  0  0  0
   30.1136  -43.6722   -0.0003 C   0  0  0  0  0  0  0  0  0  0  0  0
   31.3737  -44.4083   -0.0012 C   0  0  0  0  0  0  0  0  0  0  0  0
   31.3988  -41.6308   -0.0003 C   0  0  0  0  0  0  0  0  0  0  0  0
   32.5486  -42.3039    0.0001 C   0  0  0  0  0  0  0  0  0  0  0  0
   32.5358  -43.7559   -0.0008 C   0  0  0  0  0  0  0  0  0  0  0  0
   33.7072  -44.4876   -0.0020 O   0  0  0  0  0  0  0  0  0  0  0  0
   33.7327  -41.5946   -0.0000 O   0  0  0  0  0  0  0  0  0  0  0  0
   34.8949  -42.3799    0.0004 C   0  0  0  0  0  0  0  0  0  0  0  0
   34.8827  -43.7220   -0.0005 C   0  0  0  0  0  0  0  0  0  0  0  0
   37.3159  -43.8004    0.0017 C   0  0  0  0  0  0  0  0  0  0  0  0
   37.3295  -42.3479    0.0006 C   0  0  0  0  0  0  0  0  0  0  0  0
   36.1564  -44.4511    0.0002 C   0  0  0  0  0  0  0  0  0  0  0  0
   36.1828  -41.6742    0.0004 C   0  0  0  0  0  0  0  0  0  0  0  0
   38.8336  -41.4964   -0.0016 Cl  0  0  0  0  0  0  0  0  0  0  0  0
   28.6114  -44.5267    0.0008 Cl  0  0  0  0  0  0  0  0  0  0  0  0
   29.2642  -41.8336   -0.0004 H   0  0  0  0  0  0  0  0  0  0  0  0
   31.3651  -45.4083   -0.0021 H   0  0  0  0  0  0  0  0  0  0  0  0
   31.4086  -40.6308   -0.0005 H   0  0  0  0  0  0  0  0  0  0  0  0
   38.1764  -44.3097    0.0035 H   0  0  0  0  0  0  0  0  0  0  0  0
   36.1522  -45.4511   -0.0004 H   0  0  0  0  0  0  0  0  0  0  0  0
   36.1978  -40.6743    0.0003 H   0  0  0  0  0  0  0  0  0  0  0  0
  1  2  2  0  0  0  0
  1  4  1  0  0  0  0
  2  3  1  0  0  0  0
  3  6  2  0  0  0  0
  5  4  2  0  0  0  0
  5  6  1  0  0  0  0
  5  8  1  0  0  0  0
  6  7  1  0  0  0  0
  7 10  1  0  0  0  0
  9  8  1  0  0  0  0
  9 10  2  0  0  0  0
 11 12  1  0  0  0  0
  9 14  1  0  0  0  0
 10 13  1  0  0  0  0
 13 11  2  0  0  0  0
 12 14  2  0  0  0  0
 12 15  1  0  0  0  0
  2 16  1  0  0  0  0
  1 17  1  0  0  0  0
  3 18  1  0  0  0  0
  4 19  1  0  0  0  0
 11 20  1  0  0  0  0
 13 21  1  0  0  0  0
 14 22  1  0  0  0  0
M  END
>  <Substance ID> (180)
180

>  <Mouse_Female_Canc> (180)
1

>  <SAL> (180)
1

>  <Rat_Male_Canc> (180)
1

>  <TD50_Rat> (180)
NP

>  <TD50_Mouse> (180)
NP

>  <Rat_Female_Canc> (180)
1

>  <Canc> (180)
2

>  <MolWeight> (180)
253.08

>  <Mouse_Male_Canc> (180)
2

>  <Mouse_Male_NTP> (180)
ND

>  <ChemName> (180)
2,7-dichlorodibenzo-p-dioxin 

>  <Rat_Male_NTP> (180)
ND

>  <Reference> (180)
NTP123

>  <Formula> (180)
C12H6Cl2O2

>  <SMILES> (180)
ClC1=CC2=C(C=C1)OC3=C(C=CC(=C3)Cl)O2

>  <Rat_Female_NTP> (180)
ND

>  <CAS> (180)
33857-26-0

>  <Mouse_Female_NTP> (180)
ND

>  <Synonyms> (180)
2,7-dichloro-p-dioxin; 2,7-dichlorodibenzo[b,e][1,4]dioxin; 2,7-dichlorodibenzodioxin; DCDD.

$$$$
181


 29 30  0  0  0  0  0  0  0  0999 V2000
   36.5599  -52.5072   -0.7110 C   0  0  0  0  0  0  0  0  0  0  0  0
   36.8872  -53.7937   -0.7213 C   0  0  0  0  0  0  0  0  0  0  0  0
   39.1323  -53.3300    0.1183 C   0  0  0  0  0  0  0  0  0  0  0  0
   38.7842  -51.8895    0.0857 C   0  0  0  0  0  0  0  0  0  0  0  0
   38.2153  -54.2053   -0.2856 C   0  0  0  0  0  0  0  0  0  0  0  0
   37.5601  -51.5064   -0.3052 C   0  0  0  0  0  0  0  0  0  0  0  0
   34.9564  -52.0318   -1.1642 Cl  0  0  0  0  0  0  0  0  0  0  0  0
   40.4846  -53.8388    0.7538 C   0  0  0  0  0  0  0  0  0  0  0  0
   40.5034  -53.2069    2.0295 O   0  0  0  0  0  0  0  0  0  0  0  0
   41.8016  -53.3050    0.0685 C   0  0  0  0  0  0  0  0  0  0  0  0
   42.6831  -54.1634   -0.4373 C   0  0  0  0  0  0  0  0  0  0  0  0
   44.3363  -52.4573   -0.8394 C   0  0  0  0  0  0  0  0  0  0  0  0
   43.3710  -51.4742   -0.3213 C   0  0  0  0  0  0  0  0  0  0  0  0
   43.9919  -53.7375   -0.9155 C   0  0  0  0  0  0  0  0  0  0  0  0
   42.1640  -51.8695    0.1074 C   0  0  0  0  0  0  0  0  0  0  0  0
   45.9219  -51.9700   -1.3398 Cl  0  0  0  0  0  0  0  0  0  0  0  0
   40.5060  -55.4408    0.9017 C   0  0  0  0  0  0  0  0  0  0  0  0
   40.4778  -56.2465   -0.6916 Cl  0  0  0  0  0  0  0  0  0  0  0  0
   39.1219  -56.0096    1.8584 Cl  0  0  0  0  0  0  0  0  0  0  0  0
   41.9512  -55.9650    1.7915 Cl  0  0  0  0  0  0  0  0  0  0  0  0
   36.2248  -54.4777   -1.0269 H   0  0  0  0  0  0  0  0  0  0  0  0
   39.4612  -51.2045    0.3547 H   0  0  0  0  0  0  0  0  0  0  0  0
   38.4453  -55.1784   -0.2903 H   0  0  0  0  0  0  0  0  0  0  0  0
   37.3252  -50.5345   -0.3211 H   0  0  0  0  0  0  0  0  0  0  0  0
   41.3345  -53.4692    2.5198 H   0  0  0  0  0  0  0  0  0  0  0  0
   42.4398  -55.1318   -0.4910 H   0  0  0  0  0  0  0  0  0  0  0  0
   43.6172  -50.5055   -0.2889 H   0  0  0  0  0  0  0  0  0  0  0  0
   44.6283  -54.4066   -1.2994 H   0  0  0  0  0  0  0  0  0  0  0  0
   41.5098  -51.1967    0.4528 H   0  0  0  0  0  0  0  0  0  0  0  0
  1  2  2  0  0  0  0
  3  4  1  0  0  0  0
  1  6  1  0  0  0  0
  2  5  1  0  0  0  0
  5  3  2  0  0  0  0
  4  6  2  0  0  0  0
  1  7  1  0  0  0  0
  3  8  1  0  0  0  0
  8  9  1  0  0  0  0
  8 10  1  0  0  0  0
 10 11  2  0  0  0  0
 12 13  1  0  0  0  0
 10 15  1  0  0  0  0
 11 14  1  0  0  0  0
 14 12  2  0  0  0  0
 13 15  2  0  0  0  0
 12 16  1  0  0  0  0
  8 17  1  0  0  0  0
 17 18  1  0  0  0  0
 17 19  1  0  0  0  0
 17 20  1  0  0  0  0
  2 21  1  0  0  0  0
  4 22  1  0  0  0  0
  5 23  1  0  0  0  0
  6 24  1  0  0  0  0
  9 25  1  0  0  0  0
 11 26  1  0  0  0  0
 13 27  1  0  0  0  0
 14 28  1  0  0  0  0
 15 29  1  0  0  0  0
M  END
>  <Substance ID> (181)
181

>  <Mouse_Female_Canc> (181)
1

>  <SAL> (181)
1

>  <Rat_Male_Canc> (181)
1

>  <TD50_Rat> (181)
NP

>  <TD50_Mouse> (181)
32.9

>  <Rat_Female_Canc> (181)
1

>  <Canc> (181)
3

>  <MolWeight> (181)
370.49

>  <Mouse_Male_Canc> (181)
3

>  <Mouse_Male_NTP> (181)
ND

>  <ChemName> (181)
Dicofol

>  <Rat_Male_NTP> (181)
ND

>  <Reference> (181)
NTP90

>  <Formula> (181)
C14H9Cl5O

>  <SMILES> (181)
OC(C1=CC=C(C=C1)Cl)(C2=CC=C(C=C2)Cl)C(Cl)(Cl)Cl

>  <Rat_Female_NTP> (181)
ND

>  <CAS> (181)
115-32-2

>  <Mouse_Female_NTP> (181)
ND

>  <Synonyms> (181)
1,1-Bis-(p-chlorophenyl)-2,2,2-trichloroethanol; 1,1-bis-(chlorophenyl)-2,2,2-trichloroethanol; 2,2,2-trichloro-1,1-bis(4-chlorophenyl)ethanol; 4,4'-Dichloro-alpha-(trichloromethyl)benzhydrol; p,p'-Dicofol; para,para'-kelthane; 4-Chloro-alpha-(4-chlorophenyl)-alpha-(trichloromethyl)benzenemethanol; Acarin; di-(p-chlorophenyl)trichloromethylcarbinol; dichlorokelthane; Bis(chlorophenyl)-2,2,2-trichloroethanol; carbax; Carbox; Cekudifol; CPCA; Decofol; DTMC; FW 293; Hifol; hilfol 18.5 ec; keltane; Kelthane; kelthane a; kelthanethanol; Mifol; Milbol; Mitigan.

$$$$
182


 20 19  0  0  0  0  0  0  0  0999 V2000
   38.0076  -62.4877    0.0005 N   0  0  0  0  0  0  0  0  0  0  0  0
   39.2440  -61.7587   -0.0003 C   0  0  0  0  0  0  0  0  0  0  0  0
   40.4281  -62.7421   -0.0006 C   0  0  0  0  0  0  0  0  0  0  0  0
   33.1605  -62.7538    0.0007 C   0  0  0  0  0  0  0  0  0  0  0  0
   34.3404  -61.7656   -0.0003 C   0  0  0  0  0  0  0  0  0  0  0  0
   35.5809  -62.4915    0.0001 N   0  0  0  0  0  0  0  0  0  0  0  0
   36.7933  -61.7949    0.0005 C   0  0  0  0  0  0  0  0  0  0  0  0
   36.7908  -60.2306    0.0000 S   0  0  0  0  0  0  0  0  0  0  0  0
   35.5752  -63.4866    0.0002 H   0  0  0  0  0  0  0  0  0  0  0  0
   38.0168  -63.4833    0.0005 H   0  0  0  0  0  0  0  0  0  0  0  0
   39.2898  -61.1836   -0.8171 H   0  0  0  0  0  0  0  0  0  0  0  0
   39.2906  -61.1832    0.8162 H   0  0  0  0  0  0  0  0  0  0  0  0
   41.2871  -62.2302   -0.0012 H   0  0  0  0  0  0  0  0  0  0  0  0
   40.3834  -63.3181   -0.8169 H   0  0  0  0  0  0  0  0  0  0  0  0
   40.3842  -63.3177    0.8159 H   0  0  0  0  0  0  0  0  0  0  0  0
   32.2994  -62.2454    0.0004 H   0  0  0  0  0  0  0  0  0  0  0  0
   33.2073  -63.3288    0.8175 H   0  0  0  0  0  0  0  0  0  0  0  0
   33.2070  -63.3301   -0.8153 H   0  0  0  0  0  0  0  0  0  0  0  0
   34.2920  -61.1912   -0.8174 H   0  0  0  0  0  0  0  0  0  0  0  0
   34.2922  -61.1899    0.8159 H   0  0  0  0  0  0  0  0  0  0  0  0
  1  2  1  0  0  0  0
  2  3  1  0  0  0  0
  4  5  1  0  0  0  0
  5  6  1  0  0  0  0
  6  7  1  0  0  0  0
  7  1  1  0  0  0  0
  7  8  2  0  0  0  0
  6  9  1  0  0  0  0
  1 10  1  0  0  0  0
  2 11  1  0  0  0  0
  2 12  1  0  0  0  0
  3 13  1  0  0  0  0
  3 14  1  0  0  0  0
  3 15  1  0  0  0  0
  4 16  1  0  0  0  0
  4 17  1  0  0  0  0
  4 18  1  0  0  0  0
  5 19  1  0  0  0  0
  5 20  1  0  0  0  0
M  END
>  <Substance ID> (182)
182

>  <Mouse_Female_Canc> (182)
1

>  <SAL> (182)
1

>  <Rat_Male_Canc> (182)
3

>  <TD50_Rat> (182)
24

>  <TD50_Mouse> (182)
NP

>  <Rat_Female_Canc> (182)
3

>  <Canc> (182)
3

>  <MolWeight> (182)
132.22

>  <Mouse_Male_Canc> (182)
1

>  <Mouse_Male_NTP> (182)
ND

>  <ChemName> (182)
N,N'-diethylthiourea

>  <Rat_Male_NTP> (182)
ND

>  <Reference> (182)
NTP149

>  <Formula> (182)
C5H12N2S

>  <SMILES> (182)
S=C(NCC)NCC

>  <Rat_Female_NTP> (182)
ND

>  <CAS> (182)
105-55-5

>  <Mouse_Female_NTP> (182)
ND

>  <Synonyms> (182)
1,3-Diethyl-2-thiourea; 1,3-diethylthiourea; Diethyl-2-thiourea; Diethylthiourea; N,N'-diethylthiocarbamide; pennzone e; thiate h.

$$$$
183


 34 35  0  0  0  0  0  0  0  0999 V2000
   26.3940  -70.1136    0.0230 C   0  0  0  0  0  0  0  0  0  1  0  0
   27.1408  -71.2357   -0.0061 C   0  0  0  0  0  0  0  0  0  2  0  0
   29.2044  -69.9484   -0.0045 C   0  0  0  0  0  0  0  0  0  3  0  0
   28.3955  -68.7186    0.0228 C   0  0  0  0  0  0  0  0  0  4  0  0
   28.5931  -71.1252   -0.0213 C   0  0  0  0  0  0  0  0  0  5  0  0
   27.0588  -68.8044    0.0354 C   0  0  0  0  0  0  0  0  0  6  0  0
   25.0008  -70.1955    0.0420 N   0  0  0  0  0  0  0  0  0  7  0  0
   26.6266  -72.5785   -0.0192 O   0  0  0  0  0  0  0  0  0  8  0  0
   30.6890  -69.9570   -0.0079 C   0  0  0  0  0  0  0  0  0  9  0  0
   31.3017  -68.8009   -0.2281 C   0  0  0  0  0  0  0  0  0 10  0  0
   33.5020  -69.7971   -0.0534 C   0  0  0  0  0  0  0  0  0 11  0  0
   32.8331  -71.0841    0.1914 C   0  0  0  0  0  0  0  0  0 12  0  0
   32.7567  -68.6946   -0.2552 C   0  0  0  0  0  0  0  0  0 13  0  0
   31.4963  -71.1659    0.2138 C   0  0  0  0  0  0  0  0  0 14  0  0
   34.8993  -69.7282   -0.0761 N   0  0  0  0  0  0  0  0  0 15  0  0
   33.2757  -67.3780   -0.5009 O   0  0  0  0  0  0  0  0  0 16  0  0
   24.1940  -69.2817    0.0021 C   0  0  0  0  0  0  0  0  0 17  0  0
   23.4313  -68.3676   -0.0423 O   0  0  0  0  0  0  0  0  0 18  0  0
   35.6647  -70.6611    0.0810 C   0  0  0  0  0  0  0  0  0 19  0  0
   36.4756  -71.5209    0.2249 O   0  0  0  0  0  0  0  0  0 20  0  0
   25.2059  -72.8039    0.0152 C   0  0  0  0  0  0  0  0  0 21  0  0
   34.6991  -67.1597   -0.5307 C   0  0  0  0  0  0  0  0  0 22  0  0
   28.8418  -67.8237    0.0319 H   0  0  0  0  0  0  0  0  0 23  0  0
   29.1441  -71.9593   -0.0449 H   0  0  0  0  0  0  0  0  0 24  0  0
   26.5088  -67.9694    0.0534 H   0  0  0  0  0  0  0  0  0 25  0  0
   30.7513  -67.9798   -0.3796 H   0  0  0  0  0  0  0  0  0 26  0  0
   33.3818  -71.9062    0.3426 H   0  0  0  0  0  0  0  0  0 27  0  0
   31.0494  -72.0447    0.3805 H   0  0  0  0  0  0  0  0  0 28  0  0
   25.0234  -73.7870    0.0003 H   0  0  0  0  0  0  0  0  0 29  0  0
   24.7804  -72.3743   -0.7813 H   0  0  0  0  0  0  0  0  0 30  0  0
   24.8251  -72.4073    0.8505 H   0  0  0  0  0  0  0  0  0 31  0  0
   34.8849  -66.1941   -0.7125 H   0  0  0  0  0  0  0  0  0 32  0  0
   35.1075  -67.7188   -1.2523 H   0  0  0  0  0  0  0  0  0 33  0  0
   35.0945  -67.4143    0.3518 H   0  0  0  0  0  0  0  0  0 34  0  0
  1  2  2  0  0  0  0
  3  4  1  0  0  0  0
  1  6  1  0  0  0  0
  2  5  1  0  0  0  0
  5  3  2  0  0  0  0
  4  6  2  0  0  0  0
  1  7  1  0  0  0  0
  2  8  1  0  0  0  0
  3  9  1  0  0  0  0
  9 10  2  0  0  0  0
 11 12  1  0  0  0  0
  9 14  1  0  0  0  0
 10 13  1  0  0  0  0
 13 11  2  0  0  0  0
 12 14  2  0  0  0  0
 11 15  1  0  0  0  0
 13 16  1  0  0  0  0
  7 17  2  0  0  0  0
 17 18  2  0  0  0  0
 15 19  2  0  0  0  0
 19 20  2  0  0  0  0
  8 21  1  0  0  0  0
 16 22  1  0  0  0  0
  4 23  1  0  0  0  0
  5 24  1  0  0  0  0
  6 25  1  0  0  0  0
 10 26  1  0  0  0  0
 12 27  1  0  0  0  0
 14 28  1  0  0  0  0
 21 29  1  0  0  0  0
 21 30  1  0  0  0  0
 21 31  1  0  0  0  0
 22 32  1  0  0  0  0
 22 33  1  0  0  0  0
 22 34  1  0  0  0  0
M  END
>  <Substance ID> (183)
183

>  <Mouse_Female_Canc> (183)
1

>  <SAL> (183)
3

>  <Rat_Male_Canc> (183)
3

>  <TD50_Rat> (183)
1630

>  <TD50_Mouse> (183)
NP

>  <Rat_Female_Canc> (183)
3

>  <Canc> (183)
3

>  <MolWeight> (183)
296.28

>  <Mouse_Male_Canc> (183)
1

>  <Mouse_Male_NTP> (183)
ND

>  <ChemName> (183)
3,3'-dimethoxy-4,4'-biphenylene diisocyanate

>  <Rat_Male_NTP> (183)
ND

>  <Reference> (183)
NTP128

>  <Formula> (183)
C16H12N2O4

>  <SMILES> (183)
COC1=C(C=CC(=C1)C2=CC(=C(C=C2)N=C=O)OC)N=C=O

>  <Rat_Female_NTP> (183)
ND

>  <CAS> (183)
91-93-0

>  <Mouse_Female_NTP> (183)
ND

>  <Synonyms> (183)
3,3'-Bianisole-4,4'-Isocyanicacid Ester - Carc.; 3,3'-Dimethoxybiphenyl-4,4'-diisocyanate; 4,4'-diisocyanato-3,3'-dimethoxy-1,1'-biphenyl; dianisidine diisocyanate; isocyanic acid, 3,3'-dimethoxy-4,4'-biphenylene ester.

$$$$
184


 26 26  0  0  0  0  0  0  0  0999 V2000
   32.1305  -79.1614    0.8324 C   0  0  0  0  0  0  0  0  0  0  0  0
   30.7351  -79.2195    0.1925 C   0  0  0  0  0  0  0  0  0  0  0  0
   30.2363  -80.6057    0.2297 N   0  0  0  0  0  0  0  0  0  0  0  0
   31.1898  -81.5321   -0.4300 C   0  0  0  0  0  0  0  0  0  0  0  0
   32.5553  -81.4101    0.2643 C   0  0  0  0  0  0  0  0  0  0  0  0
   33.0295  -80.0595    0.1567 O   0  0  0  0  0  0  0  0  0  0  0  0
   28.7132  -80.6281   -0.2387 P   0  0  0  0  0  0  0  0  0  0  0  0
   27.9044  -81.9215   -0.6326 O   0  0  0  0  0  0  0  0  0  0  0  0
   27.8937  -79.7288    0.6635 O   0  0  0  0  0  0  0  0  0  0  0  0
   28.6277  -79.8059   -1.2979 O   0  0  0  0  0  0  0  0  0  0  0  0
   26.4963  -80.0525    0.5721 C   0  0  0  0  0  0  0  0  0  0  0  0
   28.4449  -83.2283   -0.3096 C   0  0  0  0  0  0  0  0  0  0  0  0
   32.4848  -78.2287    0.7660 H   0  0  0  0  0  0  0  0  0  0  0  0
   32.0629  -79.4251    1.7947 H   0  0  0  0  0  0  0  0  0  0  0  0
   30.1104  -78.6266    0.7006 H   0  0  0  0  0  0  0  0  0  0  0  0
   30.7906  -78.9104   -0.7569 H   0  0  0  0  0  0  0  0  0  0  0  0
   30.8552  -82.4712   -0.3517 H   0  0  0  0  0  0  0  0  0  0  0  0
   31.2806  -81.2896   -1.3959 H   0  0  0  0  0  0  0  0  0  0  0  0
   32.4610  -81.6540    1.2295 H   0  0  0  0  0  0  0  0  0  0  0  0
   33.2080  -82.0281   -0.1739 H   0  0  0  0  0  0  0  0  0  0  0  0
   25.9737  -79.4487    1.1740 H   0  0  0  0  0  0  0  0  0  0  0  0
   26.3549  -81.0028    0.8496 H   0  0  0  0  0  0  0  0  0  0  0  0
   26.1866  -79.9314   -0.3711 H   0  0  0  0  0  0  0  0  0  0  0  0
   27.8145  -83.9375   -0.6248 H   0  0  0  0  0  0  0  0  0  0  0  0
   28.5640  -83.3048    0.6803 H   0  0  0  0  0  0  0  0  0  0  0  0
   29.3295  -83.3445   -0.7614 H   0  0  0  0  0  0  0  0  0  0  0  0
  1  2  1  0  0  0  0
  1  6  1  0  0  0  0
  2  3  1  0  0  0  0
  3  4  1  0  0  0  0
  4  5  1  0  0  0  0
  5  6  1  0  0  0  0
  3  7  1  0  0  0  0
  7  8  1  0  0  0  0
  7  9  1  0  0  0  0
  7 10  2  0  0  0  0
  9 11  1  0  0  0  0
  8 12  1  0  0  0  0
  1 13  1  0  0  0  0
  1 14  1  0  0  0  0
  2 15  1  0  0  0  0
  2 16  1  0  0  0  0
  4 17  1  0  0  0  0
  4 18  1  0  0  0  0
  5 19  1  0  0  0  0
  5 20  1  0  0  0  0
 11 21  1  0  0  0  0
 11 22  1  0  0  0  0
 11 23  1  0  0  0  0
 12 24  1  0  0  0  0
 12 25  1  0  0  0  0
 12 26  1  0  0  0  0
M  END
>  <Substance ID> (184)
184

>  <Mouse_Female_Canc> (184)
1

>  <SAL> (184)
1

>  <Rat_Male_Canc> (184)
3

>  <TD50_Rat> (184)
614

>  <TD50_Mouse> (184)
NP

>  <Rat_Female_Canc> (184)
3

>  <Canc> (184)
3

>  <MolWeight> (184)
195.15

>  <Mouse_Male_Canc> (184)
1

>  <Mouse_Male_NTP> (184)
NE

>  <ChemName> (184)
Dimethyl morpholinophosphoramidate

>  <Rat_Male_NTP> (184)
SE

>  <Reference> (184)
NTP298

>  <Formula> (184)
C6H14NO4P

>  <SMILES> (184)
P(=O)(OC)(OC)N1CCOCC1

>  <Rat_Female_NTP> (184)
SE

>  <CAS> (184)
597-25-1

>  <Mouse_Female_NTP> (184)
NE

>  <Synonyms> (184)
4-morpholinylphosphonic acid dimethyl ester; dimethyl 4-morpholinylphosphonate; dimethyl morpholinophosphonate; DMMPA; hc 1717; morpholinophosphonic acid dimethyl ester.

$$$$
185


 14 14  0  0  0  0  0  0  0  0999 V2000
   40.3670  -85.6776    0.2415 C   0  0  0  0  0  0  0  0  0  0  0  0
   40.3673  -87.1456   -0.2415 C   0  0  0  0  0  0  0  0  0  0  0  0
   41.5443  -87.8082    0.2484 O   0  0  0  0  0  0  0  0  0  0  0  0
   42.7212  -87.1452   -0.2412 C   0  0  0  0  0  0  0  0  0  0  0  0
   42.7209  -85.6773    0.2418 C   0  0  0  0  0  0  0  0  0  0  0  0
   41.5439  -85.0146   -0.2481 O   0  0  0  0  0  0  0  0  0  0  0  0
   39.5530  -85.2122   -0.1059 H   0  0  0  0  0  0  0  0  0  0  0  0
   40.3631  -85.6554    1.2413 H   0  0  0  0  0  0  0  0  0  0  0  0
   39.5533  -87.6113    0.1058 H   0  0  0  0  0  0  0  0  0  0  0  0
   40.3636  -87.1679   -1.2412 H   0  0  0  0  0  0  0  0  0  0  0  0
   43.5353  -87.6106    0.1063 H   0  0  0  0  0  0  0  0  0  0  0  0
   42.7252  -87.1675   -1.2410 H   0  0  0  0  0  0  0  0  0  0  0  0
   42.7246  -85.6550    1.2416 H   0  0  0  0  0  0  0  0  0  0  0  0
   43.5349  -85.2116   -0.1055 H   0  0  0  0  0  0  0  0  0  0  0  0
  1  2  1  0  0  0  0
  1  6  1  0  0  0  0
  2  3  1  0  0  0  0
  3  4  1  0  0  0  0
  4  5  1  0  0  0  0
  5  6  1  0  0  0  0
  1  7  1  0  0  0  0
  1  8  1  0  0  0  0
  2  9  1  0  0  0  0
  2 10  1  0  0  0  0
  4 11  1  0  0  0  0
  4 12  1  0  0  0  0
  5 13  1  0  0  0  0
  5 14  1  0  0  0  0
M  END
>  <Substance ID> (185)
185

>  <Mouse_Female_Canc> (185)
3

>  <SAL> (185)
1

>  <Rat_Male_Canc> (185)
3

>  <TD50_Rat> (185)
334

>  <TD50_Mouse> (185)
838

>  <Rat_Female_Canc> (185)
3

>  <Canc> (185)
3

>  <MolWeight> (185)
88.11

>  <Mouse_Male_Canc> (185)
3

>  <Mouse_Male_NTP> (185)
ND

>  <ChemName> (185)
1,4-Dioxane

>  <Rat_Male_NTP> (185)
ND

>  <Reference> (185)
NTP80

>  <Formula> (185)
C4H8O2

>  <SMILES> (185)
C1COCCO1

>  <Rat_Female_NTP> (185)
ND

>  <CAS> (185)
123-91-1

>  <Mouse_Female_NTP> (185)
ND

>  <Synonyms> (185)
1,4-diethylene dioxide; 1,4-Diethyleneoxide; 1,4-Dioxacyclohexane; p-dioxane; Diethylene dioxide; diethylene ether; diethylene oxide; diokan; Diox; Dioxane; Dioxane, 1,4-; Dioxyethylene ether; DuPont Zonyl FSO-100 Fluorinated Surfactants; ethylene glycol ethylene ether; glycol ethylene ether8; Tetrahydro-1,4-dioxin; Tetrahydro-p-dioxin.

$$$$
186


 77 82  0  0  0  0  0  0  0  0999 V2000
   23.2129   -4.0077    0.0211 C   0  0  0  0  0  0  0  0  0  0  0  0
   23.3856   -5.3530    0.1170 C   0  0  0  0  0  0  0  0  0  0  0  0
   24.7108   -5.9110    0.0768 C   0  0  0  0  0  0  0  0  0  0  0  0
   24.5732   -3.1563   -0.0303 C   0  0  0  0  0  0  0  0  0  0  0  0
    5.2027   -3.7694    0.0030 C   0  0  0  0  0  0  0  0  0  0  0  0
    5.7807   -4.9697   -0.0518 C   0  0  0  0  0  0  0  0  0  0  0  0
    8.0435   -3.9969   -0.0189 C   0  0  0  0  0  0  0  0  0  0  0  0
    7.3749   -2.6616    0.0365 C   0  0  0  0  0  0  0  0  0  0  0  0
    7.2608   -5.0868   -0.0630 C   0  0  0  0  0  0  0  0  0  0  0  0
    6.0432   -2.5682    0.0481 C   0  0  0  0  0  0  0  0  0  0  0  0
    8.1369   -1.4979    0.0769 N   0  0  0  0  0  0  0  0  0  0  0  0
    3.8034   -3.6554    0.0196 N   0  0  0  0  0  0  0  0  0  0  0  0
    9.5177   -4.1573   -0.0279 N   0  0  0  0  0  0  0  0  0  0  0  0
   10.3082   -3.2156    0.0184 N   0  0  0  0  0  0  0  0  0  0  0  0
   11.7999   -3.3691   -0.0015 C   0  0  0  0  0  0  0  0  0  0  0  0
   12.4085   -4.5625   -0.0720 C   0  0  0  0  0  0  0  0  0  0  0  0
   14.7188   -3.5579   -0.0528 C   0  0  0  0  0  0  0  0  0  0  0  0
   14.0178   -2.2452    0.0283 C   0  0  0  0  0  0  0  0  0  0  0  0
   13.9413   -4.6585   -0.0978 C   0  0  0  0  0  0  0  0  0  0  0  0
   12.6709   -2.1606    0.0524 C   0  0  0  0  0  0  0  0  0  0  0  0
   16.3202   -3.6533   -0.0772 C   0  0  0  0  0  0  0  0  0  0  0  0
   16.9346   -4.8393   -0.1441 C   0  0  0  0  0  0  0  0  0  0  0  0
   19.2661   -3.8726   -0.0738 C   0  0  0  0  0  0  0  0  0  0  0  0
   18.5837   -2.5323   -0.0182 C   0  0  0  0  0  0  0  0  0  0  0  0
   18.4519   -4.9441   -0.1406 C   0  0  0  0  0  0  0  0  0  0  0  0
   17.2235   -2.4319   -0.0186 C   0  0  0  0  0  0  0  0  0  0  0  0
   20.8079   -4.1169   -0.0425 N   0  0  0  0  0  0  0  0  0  0  0  0
   21.7967   -3.3599    0.0095 N   0  0  0  0  0  0  0  0  0  0  0  0
   25.7955   -3.7843   -0.0008 C   0  0  0  0  0  0  0  0  0  0  0  0
   25.8178   -5.2040    0.0075 C   0  0  0  0  0  0  0  0  0  0  0  0
   28.2343   -5.3513   -0.1305 C   0  0  0  0  0  0  0  0  0  0  0  0
   28.3490   -3.8274   -0.0150 C   0  0  0  0  0  0  0  0  0  0  0  0
   27.0498   -5.9273   -0.0895 C   0  0  0  0  0  0  0  0  0  0  0  0
   27.2044   -3.0882    0.0245 C   0  0  0  0  0  0  0  0  0  0  0  0
   29.6759   -3.2005    0.0281 N   0  0  0  0  0  0  0  0  0  0  0  0
   30.6200   -3.9767    0.0857 N   0  0  0  0  0  0  0  0  0  0  0  0
   32.0404   -3.6783    0.1076 C   0  0  0  0  0  0  0  0  0  0  0  0
   32.9088   -4.6931    0.2077 C   0  0  0  0  0  0  0  0  0  0  0  0
   34.8277   -3.2192    0.0903 C   0  0  0  0  0  0  0  0  0  0  0  0
   33.8846   -2.0952   -0.0155 C   0  0  0  0  0  0  0  0  0  0  0  0
   34.3604   -4.4591    0.2034 C   0  0  0  0  0  0  0  0  0  0  0  0
   32.5627   -2.3093   -0.0035 C   0  0  0  0  0  0  0  0  0  0  0  0
   24.5142   -1.7622   -0.0625 N   0  0  0  0  0  0  0  0  0  0  0  0
   22.1530   -6.6499    0.3585 S   0  0  0  0  0  0  0  0  0  0  0  0
   29.6080   -6.5023   -0.4036 S   0  0  0  0  0  0  0  0  0  0  0  0
   20.7182   -6.6453   -0.5729 O   0  5  0  0  0  0  0  0  0  0  0  0
   30.8014   -6.5820    0.8304 O   0  5  0  0  0  0  0  0  0  0  0  0
   21.8133   -6.6740    1.8391 O   0  0  0  0  0  0  0  0  0  0  0  0
   22.8689   -7.9573    0.0599 O   0  0  0  0  0  0  0  0  0  0  0  0
   28.9933   -7.8883   -0.4995 O   0  0  0  0  0  0  0  0  0  0  0  0
   30.2663   -6.1978   -1.7398 O   0  0  0  0  0  0  0  0  0  0  0  0
   27.3001   -1.7101    0.1129 O   0  0  0  0  0  0  0  0  0  0  0  0
   24.7965   -6.9070    0.1034 H   0  0  0  0  0  0  0  0  0  0  0  0
    5.2153   -5.7939   -0.0856 H   0  0  0  0  0  0  0  0  0  0  0  0
    7.6818   -5.9930   -0.1040 H   0  0  0  0  0  0  0  0  0  0  0  0
    5.6126   -1.6666    0.0881 H   0  0  0  0  0  0  0  0  0  0  0  0
    7.6861   -0.6061    0.1139 H   0  0  0  0  0  0  0  0  0  0  0  0
    9.1353   -1.5535    0.0688 H   0  0  0  0  0  0  0  0  0  0  0  0
    3.3757   -2.7524    0.0608 H   0  0  0  0  0  0  0  0  0  0  0  0
    3.2344   -4.4772   -0.0098 H   0  0  0  0  0  0  0  0  0  0  0  0
   11.8592   -5.3973   -0.1080 H   0  0  0  0  0  0  0  0  0  0  0  0
   14.5593   -1.4053    0.0659 H   0  0  0  0  0  0  0  0  0  0  0  0
   14.3730   -5.5591   -0.1493 H   0  0  0  0  0  0  0  0  0  0  0  0
   12.2437   -1.2582    0.1082 H   0  0  0  0  0  0  0  0  0  0  0  0
   16.3857   -5.6735   -0.1973 H   0  0  0  0  0  0  0  0  0  0  0  0
   19.1375   -1.7005    0.0197 H   0  0  0  0  0  0  0  0  0  0  0  0
   18.8657   -5.8531   -0.1904 H   0  0  0  0  0  0  0  0  0  0  0  0
   16.8062   -1.5240    0.0212 H   0  0  0  0  0  0  0  0  0  0  0  0
   27.0090   -6.9257   -0.1283 H   0  0  0  0  0  0  0  0  0  0  0  0
   32.5632   -5.6282    0.2869 H   0  0  0  0  0  0  0  0  0  0  0  0
   35.8135   -3.0520    0.0773 H   0  0  0  0  0  0  0  0  0  0  0  0
   34.2341   -1.1619   -0.0972 H   0  0  0  0  0  0  0  0  0  0  0  0
   34.9935   -5.2288    0.2851 H   0  0  0  0  0  0  0  0  0  0  0  0
   31.9307   -1.5371   -0.0703 H   0  0  0  0  0  0  0  0  0  0  0  0
   25.3580   -1.2266   -0.0946 H   0  0  0  0  0  0  0  0  0  0  0  0
   23.6280   -1.2989   -0.0536 H   0  0  0  0  0  0  0  0  0  0  0  0
   28.2635   -1.4420    0.1167 H   0  0  0  0  0  0  0  0  0  0  0  0
  1  2  2  0  0  0  0
  1  4  1  0  0  0  0
  2  3  1  0  0  0  0
  3 30  2  0  0  0  0
 29  4  2  0  0  0  0
  5  6  2  0  0  0  0
  7  8  1  0  0  0  0
  5 10  1  0  0  0  0
  6  9  1  0  0  0  0
  9  7  2  0  0  0  0
  8 10  2  0  0  0  0
  8 11  1  0  0  0  0
  5 12  1  0  0  0  0
  7 13  1  0  0  0  0
 13 14  2  0  0  0  0
 14 15  1  0  0  0  0
 15 16  2  0  0  0  0
 17 18  1  0  0  0  0
 15 20  1  0  0  0  0
 16 19  1  0  0  0  0
 19 17  2  0  0  0  0
 18 20  2  0  0  0  0
 17 21  1  0  0  0  0
 21 22  2  0  0  0  0
 23 24  1  0  0  0  0
 21 26  1  0  0  0  0
 22 25  1  0  0  0  0
 25 23  2  0  0  0  0
 24 26  2  0  0  0  0
 23 27  1  0  0  0  0
 27 28  2  0  0  0  0
 28  1  1  0  0  0  0
 29 30  1  0  0  0  0
 31 32  1  0  0  0  0
 29 34  1  0  0  0  0
 30 33  1  0  0  0  0
 33 31  2  0  0  0  0
 32 34  2  0  0  0  0
 32 35  1  0  0  0  0
 35 36  2  0  0  0  0
 36 37  1  0  0  0  0
 37 38  2  0  0  0  0
 39 40  1  0  0  0  0
 37 42  1  0  0  0  0
 38 41  1  0  0  0  0
 41 39  2  0  0  0  0
 40 42  2  0  0  0  0
  4 43  1  0  0  0  0
  2 44  1  0  0  0  0
 31 45  1  0  0  0  0
 44 46  1  0  0  0  0
 45 47  1  0  0  0  0
 44 48  2  0  0  0  0
 44 49  2  0  0  0  0
 45 50  2  0  0  0  0
 45 51  2  0  0  0  0
 34 52  1  0  0  0  0
  3 53  1  0  0  0  0
  6 54  1  0  0  0  0
  9 55  1  0  0  0  0
 10 56  1  0  0  0  0
 11 57  1  0  0  0  0
 11 58  1  0  0  0  0
 12 59  1  0  0  0  0
 12 60  1  0  0  0  0
 16 61  1  0  0  0  0
 18 62  1  0  0  0  0
 19 63  1  0  0  0  0
 20 64  1  0  0  0  0
 22 65  1  0  0  0  0
 24 66  1  0  0  0  0
 25 67  1  0  0  0  0
 26 68  1  0  0  0  0
 33 69  1  0  0  0  0
 38 70  1  0  0  0  0
 39 71  1  0  0  0  0
 40 72  1  0  0  0  0
 41 73  1  0  0  0  0
 42 74  1  0  0  0  0
 43 75  1  0  0  0  0
 43 76  1  0  0  0  0
 52 77  1  0  0  0  0
M  END
>  <Substance ID> (186)
186

>  <Mouse_Female_Canc> (186)
1

>  <SAL> (186)
3

>  <Rat_Male_Canc> (186)
3

>  <TD50_Rat> (186)
1.39

>  <TD50_Mouse> (186)
NP

>  <Rat_Female_Canc> (186)
3

>  <Canc> (186)
3

>  <MolWeight> (186)
781.76

>  <Mouse_Male_Canc> (186)
1

>  <Mouse_Male_NTP> (186)
ND

>  <ChemName> (186)
C.I. Direct Black 38

>  <Rat_Male_NTP> (186)
ND

>  <Reference> (186)
NTP108

>  <Formula> (186)
C34H25N9O7S2Na2

>  <SMILES> (186)
[Na+].[O-]S(=O)(=O)c4c(/N=N/c3ccc(c2ccc(/N=N/c1ccc(N)cc1N)cc2)cc3)c(N)c6c(c4)cc(c(/N=N/c5ccccc5)c6O)S([O-])(=O)=O.[Na+]

>  <Rat_Female_NTP> (186)
ND

>  <CAS> (186)
1937-37-7

>  <Mouse_Female_NTP> (186)
ND

>  <Synonyms> (186)
meta black; 4-amino-3-[[4'-[(2,4-diaminophenyl)azo][1,1'-biphenyl]-4-yl]azo]-5-hydroxy-6-(phenylazo)-2,7-Naphthalenedisulfonic acid, disodium salt; chrome leather black e; C.I. 30235; C.I. direct black 38, disodium salt; coir deep black c; columbia black ep; erie black b; fenamin black e; formic black c; interchem direct black z; kayaku direct deep black ex; mitsui direct black ex; nippon deep black; paper black t; pheno black ep; pontamine black e; tetrazo deep black g; tetrodirect black e; union black em; vondacel black n; paramine black b; ahco direct black gx; airedale black ed; aizen direct deep black eh; aizen direct deep black gh; amanil black gl; atlantic black bd; Azo Black; azomine black ewo; diacotton deep black; diamine deep black ec; diazine black e; Direct Black Meta; Direct Black 38; direct black a; direct black e; direct black methyl; direct deep black e; black 2EMBL; brilliant chrome leather black h; calcomine black exl; chloramine black c; chloramine carbon black s; chlorazol black e.

$$$$
187


 76 81  0  0  0  0  0  0  0  0999 V2000
   26.6550  -16.3903   -0.0861 C   0  0  0  0  0  0  0  0  0  0  0  0
   26.8622  -17.7246   -0.0774 C   0  0  0  0  0  0  0  0  0  0  0  0
   28.2402  -18.2786   -0.0038 C   0  0  0  0  0  0  0  0  0  0  0  0
   27.9108  -15.5125   -0.0323 C   0  0  0  0  0  0  0  0  0  0  0  0
    6.3301  -15.8398    0.1194 C   0  0  0  0  0  0  0  0  0  0  0  0
    6.1862  -17.1574   -0.0108 C   0  0  0  0  0  0  0  0  0  0  0  0
    7.3839  -17.9874   -0.0991 C   0  0  0  0  0  0  0  0  0  0  0  0
    7.6951  -15.2367    0.1718 C   0  0  0  0  0  0  0  0  0  0  0  0
    8.7892  -16.0178    0.0875 C   0  0  0  0  0  0  0  0  0  0  0  0
    8.6030  -17.4364   -0.0520 C   0  0  0  0  0  0  0  0  0  0  0  0
   11.0095  -17.8066   -0.1191 C   0  0  0  0  0  0  0  0  0  0  0  0
   11.3055  -16.2875    0.0360 C   0  0  0  0  0  0  0  0  0  0  0  0
    9.7563  -18.2713   -0.1498 C   0  0  0  0  0  0  0  0  0  0  0  0
   10.2293  -15.4671    0.1305 C   0  0  0  0  0  0  0  0  0  0  0  0
    7.8112  -13.8584    0.3058 N   0  0  0  0  0  0  0  0  0  0  0  0
    4.5535  -17.9090   -0.0842 S   0  0  0  0  0  0  0  0  0  0  0  0
   10.4308  -14.1053    0.2671 O   0  0  0  0  0  0  0  0  0  0  0  0
   12.2180  -19.1022   -0.2882 S   0  0  0  0  0  0  0  0  0  0  0  0
   12.7396  -15.7009    0.0800 N   0  0  0  0  0  0  0  0  0  0  0  0
   13.7142  -16.4630    0.0765 N   0  0  0  0  0  0  0  0  0  0  0  0
    3.4871  -16.8615   -0.3453 O   0  0  0  0  0  0  0  0  0  0  0  0
    4.5256  -18.9681   -1.1711 O   0  0  0  0  0  0  0  0  0  0  0  0
   11.6507  -20.0877   -1.2953 O   0  0  0  0  0  0  0  0  0  0  0  0
   13.5872  -18.6732   -0.7635 O   0  0  0  0  0  0  0  0  0  0  0  0
    4.2223  -18.6808    1.3951 O   0  5  0  0  0  0  0  0  0  0  0  0
   12.3271  -19.9576    1.1937 O   0  5  0  0  0  0  0  0  0  0  0  0
   15.2350  -16.2061    0.0741 C   0  0  0  0  0  0  0  0  0  0  0  0
   16.0326  -17.2827    0.0719 C   0  0  0  0  0  0  0  0  0  0  0  0
   18.1746  -16.0165    0.0093 C   0  0  0  0  0  0  0  0  0  0  0  0
   17.2943  -14.7691    0.0233 C   0  0  0  0  0  0  0  0  0  0  0  0
   17.5328  -17.1895    0.0385 C   0  0  0  0  0  0  0  0  0  0  0  0
   15.9293  -14.8577    0.0526 C   0  0  0  0  0  0  0  0  0  0  0  0
   19.7894  -16.0331   -0.0434 C   0  0  0  0  0  0  0  0  0  0  0  0
   20.4099  -17.2191   -0.0730 C   0  0  0  0  0  0  0  0  0  0  0  0
   22.7252  -16.2767   -0.1401 C   0  0  0  0  0  0  0  0  0  0  0  0
   22.0521  -14.9163   -0.1108 C   0  0  0  0  0  0  0  0  0  0  0  0
   21.9121  -17.3418   -0.1219 C   0  0  0  0  0  0  0  0  0  0  0  0
   20.6901  -14.8036   -0.0667 C   0  0  0  0  0  0  0  0  0  0  0  0
   24.2417  -16.5514   -0.1663 N   0  0  0  0  0  0  0  0  0  0  0  0
   25.2234  -15.7880   -0.1465 N   0  0  0  0  0  0  0  0  0  0  0  0
   29.1512  -16.0621    0.0539 C   0  0  0  0  0  0  0  0  0  0  0  0
   29.3107  -17.4957    0.0502 C   0  0  0  0  0  0  0  0  0  0  0  0
   31.7534  -17.3137    0.2364 C   0  0  0  0  0  0  0  0  0  0  0  0
   31.6049  -15.8411    0.2219 C   0  0  0  0  0  0  0  0  0  0  0  0
   30.6684  -18.0909    0.1536 C   0  0  0  0  0  0  0  0  0  0  0  0
   30.4062  -15.2449    0.1283 C   0  0  0  0  0  0  0  0  0  0  0  0
   27.7725  -14.1353   -0.0309 O   0  0  0  0  0  0  0  0  0  0  0  0
   30.3523  -13.8545    0.1305 N   0  0  0  0  0  0  0  0  0  0  0  0
   33.3951  -18.0540    0.4137 S   0  0  0  0  0  0  0  0  0  0  0  0
   25.5221  -18.8854   -0.1125 S   0  0  0  0  0  0  0  0  0  0  0  0
   25.2809  -20.4778    0.4968 O   0  5  0  0  0  0  0  0  0  0  0  0
   34.5475  -18.5833   -0.7261 O   0  5  0  0  0  0  0  0  0  0  0  0
   25.2973  -18.4919    1.3348 O   0  0  0  0  0  0  0  0  0  0  0  0
   26.6653  -19.7058   -0.6925 O   0  0  0  0  0  0  0  0  0  0  0  0
   33.8324  -16.7206   -0.1610 O   0  0  0  0  0  0  0  0  0  0  0  0
   32.6749  -19.2473   -0.1835 O   0  0  0  0  0  0  0  0  0  0  0  0
   28.3641  -19.2708    0.0054 H   0  0  0  0  0  0  0  0  0  0  0  0
    5.5226  -15.2533    0.1822 H   0  0  0  0  0  0  0  0  0  0  0  0
    7.2926  -18.9785   -0.1959 H   0  0  0  0  0  0  0  0  0  0  0  0
    9.6197  -19.2571   -0.2465 H   0  0  0  0  0  0  0  0  0  0  0  0
    8.7159  -13.4341    0.3429 H   0  0  0  0  0  0  0  0  0  0  0  0
    6.9900  -13.2908    0.3652 H   0  0  0  0  0  0  0  0  0  0  0  0
   11.4119  -13.9125    0.2778 H   0  0  0  0  0  0  0  0  0  0  0  0
   15.6110  -18.1893    0.0934 H   0  0  0  0  0  0  0  0  0  0  0  0
   17.7253  -13.8668    0.0107 H   0  0  0  0  0  0  0  0  0  0  0  0
   18.0691  -18.0335    0.0380 H   0  0  0  0  0  0  0  0  0  0  0  0
   15.3814  -14.0212    0.0600 H   0  0  0  0  0  0  0  0  0  0  0  0
   19.8578  -18.0529   -0.0623 H   0  0  0  0  0  0  0  0  0  0  0  0
   22.6140  -14.0892   -0.1239 H   0  0  0  0  0  0  0  0  0  0  0  0
   22.3182  -18.2554   -0.1417 H   0  0  0  0  0  0  0  0  0  0  0  0
   20.2754  -13.8938   -0.0494 H   0  0  0  0  0  0  0  0  0  0  0  0
   32.4247  -15.2717    0.2838 H   0  0  0  0  0  0  0  0  0  0  0  0
   30.7719  -19.0855    0.1613 H   0  0  0  0  0  0  0  0  0  0  0  0
   28.6763  -13.7091    0.0067 H   0  0  0  0  0  0  0  0  0  0  0  0
   31.1969  -13.3215    0.1805 H   0  0  0  0  0  0  0  0  0  0  0  0
   29.4689  -13.3883    0.0820 H   0  0  0  0  0  0  0  0  0  0  0  0
  1  2  2  0  0  0  0
  1  4  1  0  0  0  0
  2  3  1  0  0  0  0
  3 42  2  0  0  0  0
 41  4  2  0  0  0  0
  5  6  2  0  0  0  0
  5  8  1  0  0  0  0
  6  7  1  0  0  0  0
  7 10  2  0  0  0  0
  9  8  2  0  0  0  0
  9 10  1  0  0  0  0
 11 12  1  0  0  0  0
  9 14  1  0  0  0  0
 10 13  1  0  0  0  0
 13 11  2  0  0  0  0
 12 14  2  0  0  0  0
  8 15  1  0  0  0  0
  6 16  1  0  0  0  0
 14 17  1  0  0  0  0
 11 18  1  0  0  0  0
 12 19  1  0  0  0  0
 19 20  2  0  0  0  0
 16 21  2  0  0  0  0
 16 22  2  0  0  0  0
 18 23  2  0  0  0  0
 18 24  2  0  0  0  0
 16 25  1  0  0  0  0
 18 26  1  0  0  0  0
 20 27  1  0  0  0  0
 27 28  2  0  0  0  0
 29 30  1  0  0  0  0
 27 32  1  0  0  0  0
 28 31  1  0  0  0  0
 31 29  2  0  0  0  0
 30 32  2  0  0  0  0
 29 33  1  0  0  0  0
 33 34  2  0  0  0  0
 35 36  1  0  0  0  0
 33 38  1  0  0  0  0
 34 37  1  0  0  0  0
 37 35  2  0  0  0  0
 36 38  2  0  0  0  0
 35 39  1  0  0  0  0
 39 40  2  0  0  0  0
 40  1  1  0  0  0  0
 41 42  1  0  0  0  0
 43 44  1  0  0  0  0
 41 46  1  0  0  0  0
 42 45  1  0  0  0  0
 45 43  2  0  0  0  0
 44 46  2  0  0  0  0
  4 47  1  0  0  0  0
 46 48  1  0  0  0  0
 43 49  1  0  0  0  0
  2 50  1  0  0  0  0
 50 51  1  0  0  0  0
 49 52  1  0  0  0  0
 50 53  2  0  0  0  0
 50 54  2  0  0  0  0
 49 55  2  0  0  0  0
 49 56  2  0  0  0  0
  3 57  1  0  0  0  0
  5 58  1  0  0  0  0
  7 59  1  0  0  0  0
 13 60  1  0  0  0  0
 15 61  1  0  0  0  0
 15 62  1  0  0  0  0
 17 63  1  0  0  0  0
 28 64  1  0  0  0  0
 30 65  1  0  0  0  0
 31 66  1  0  0  0  0
 32 67  1  0  0  0  0
 34 68  1  0  0  0  0
 36 69  1  0  0  0  0
 37 70  1  0  0  0  0
 38 71  1  0  0  0  0
 44 72  1  0  0  0  0
 45 73  1  0  0  0  0
 47 74  1  0  0  0  0
 48 75  1  0  0  0  0
 48 76  1  0  0  0  0
M  END
>  <Substance ID> (187)
187

>  <Mouse_Female_Canc> (187)
1

>  <SAL> (187)
3

>  <Rat_Male_Canc> (187)
3

>  <TD50_Rat> (187)
1.73

>  <TD50_Mouse> (187)
NP

>  <Rat_Female_Canc> (187)
3

>  <Canc> (187)
3

>  <MolWeight> (187)
932.81

>  <Mouse_Male_Canc> (187)
1

>  <Mouse_Male_NTP> (187)
ND

>  <ChemName> (187)
C.I. Direct Blue 6

>  <Rat_Male_NTP> (187)
ND

>  <Reference> (187)
NTP108

>  <Formula> (187)
C32H20N6O14S4Na4

>  <SMILES> (187)
[Na+].[Na+].[O-]S(=O)(=O)c6cc1cc(cc(N)c1c(O)c6/N=N/c2ccc(cc2)c5ccc(/N=N/c4c(cc3cc(cc(N)c3c4O)S([O-])(=O)=O)S([O-])(=O)=O)cc5)S([O-])(=O)=O.[Na+].[Na+]

>  <Rat_Female_NTP> (187)
ND

>  <CAS> (187)
2602-46-2

>  <Mouse_Female_NTP> (187)
ND

>  <Synonyms> (187)
3,3'-((4,4'-biphenylylene)bis(azo))bis(5-amino-4-hydroxy)-2,7-naphthalene-disulfonic acid tetrasodium salt; C.I. 22610; sodium diphenyl-4,4'-bis-azo-2''-8''-amino-1''-naphthol-3'',6''-disulfonate; airedale blue 2bd; aizen direct blue 2bh; amanil blue 2bx; atlantic blue 2b; atul direct blue 2b; azocard blue 2b; azomine blue 2b; belamine blue 2b; bencidal blue 2b; benzanil blue 2b; benzo blue bba-cf; blue 2b; brazilamina blue 2b; calcomine blue 2b; chloramine blue 2b; chlorazol blue b; chrome leather blue 2b; cresotine blue 2b; diacotton blue bb; diamine blue 2b; diaphtamine blue bb; diazine blue 2b; diazol blue 2b; diphenyl blue 2b; direct blue a; direct blue 2b; direct blue bb; direct blue gs; direct blue k; enianil blue 2bn; fenamin blue 2b; fixanol blue 2b; hispamin blue 2b; vondacel blue 2b; pontamine blue bb; tertrodirect blue 2b; indigo blue 2b; mitsui direct blue 2bn; naphtamine blue 2b; niagara blue 2b; nippon blue bb; paramine blue 2b; phenamine blue bb; pheno blue 2b; C.I. Direct blue 6, tetrasodium salt; Direct Blue 6; DIRECT BLUE.

$$$$
188
 

 66 72  0  0  0  0  0  0  0  0999 V2000
   21.3384  -23.0842   -0.0336 O   0  5  0  0  0  0  0  0  0  1  0  0
   21.2527  -21.6868   -0.0260 C   0  0  0  0  0  0  0  0  0  2  0  0
   22.2896  -21.0142   -0.0346 O   0  0  0  0  0  0  0  0  0  3  0  0
   19.9351  -21.0062   -0.0094 C   0  0  0  0  0  0  0  0  0  4  0  0
   19.8665  -19.5167   -0.0131 C   0  0  0  0  0  0  0  0  0  5  0  0
   18.6825  -18.8901    0.0011 C   0  0  0  0  0  0  0  0  0  6  0  0
   18.6062  -17.4454   -0.0024 N   0  0  0  0  0  0  0  0  0  7  0  0
   17.5214  -16.8820    0.0003 N   0  0  0  0  0  0  0  0  0  8  0  0
   17.3626  -15.4349    0.0013 C   0  0  0  0  0  0  0  0  0  9  0  0
   18.4101  -14.6025    0.0077 C   0  0  0  0  0  0  0  0  0 10  0  0
   18.1958  -13.1082    0.0118 C   0  0  0  0  0  0  0  0  0 11  0  0
   16.9556  -12.5972    0.0062 C   0  0  0  0  0  0  0  0  0 12  0  0
   15.8134  -13.5301   -0.0013 C   0  0  0  0  0  0  0  0  0 13  0  0
   16.0035  -14.8563   -0.0035 C   0  0  0  0  0  0  0  0  0 14  0  0
   16.7054  -11.0768    0.0159 C   0  0  0  0  0  0  0  0  0 15  0  0
   17.8200  -10.0883    0.0408 C   0  0  0  0  0  0  0  0  0 16  0  0
   17.5676   -8.7647    0.0456 C   0  0  0  0  0  0  0  0  0 17  0  0
   16.1681   -8.2536    0.0235 C   0  0  0  0  0  0  0  0  0 18  0  0
   15.8596   -6.8144    0.0178 N   0  0  0  0  0  0  0  0  0 19  0  0
   16.7314   -5.9594    0.0765 N   0  0  0  0  0  0  0  0  0 20  0  0
   16.4762   -4.5126    0.0389 C   0  0  0  0  0  0  0  0  0 21  0  0
   17.6393   -3.5788    0.1190 C   0  0  0  0  0  0  0  0  0 22  0  0
   18.9246   -4.0967    0.2315 O   0  0  0  0  0  0  0  0  0 23  0  0
   17.4726   -2.2473    0.0850 C   0  0  0  0  0  0  0  0  0 24  0  0
   16.1337   -1.6457   -0.0339 C   0  0  0  0  0  0  0  0  0 25  0  0
   15.0901   -2.4584   -0.1216 C   0  0  0  0  0  0  0  0  0 26  0  0
   13.7645   -2.0583   -0.2108 N   0  3  0  0  0  0  0  0  0 27  0  0
   13.2693   -0.9599   -0.0864 N   0  0  0  0  0  0  0  0  0 28  0  0
   11.7908   -0.7831   -0.0177 C   0  0  0  0  0  0  0  0  0 29  0  0
   11.2456    0.6139   -0.1040 C   0  0  0  0  0  0  0  0  0 30  0  0
    9.9349    0.8486    0.0420 C   0  0  0  0  0  0  0  0  0 31  0  0
    9.0311   -0.2478    0.3172 C   0  0  0  0  0  0  0  0  0 32  0  0
    9.4862   -1.4919    0.3978 C   0  0  0  0  0  0  0  0  0 33  0  0
   10.9057   -1.8051    0.2025 C   0  0  0  0  0  0  0  0  0 34  0  0
   11.2538   -3.2021    0.2724 O   0  0  0  0  0  0  0  0  0 35  0  0
   12.8242   -3.3976   -0.5171 Cu  0  0  0  0  0  0  0  0  0 36  0  0
   14.0205   -4.7424   -0.1523 O   0  0  0  0  0  0  0  0  0 37  0  0
   15.2518   -3.9713   -0.0783 C   0  0  0  0  0  0  0  0  0 38  0  0
    9.2529    2.4907   -0.1017 S   0  0  0  0  0  0  0  0  0 39  0  0
   10.2481    3.4742   -1.0645 O   0  5  0  0  0  0  0  0  0 40  0  0
    9.1332    3.1045    1.2802 O   0  0  0  0  0  0  0  0  0 41  0  0
    7.8591    2.4008   -0.6974 O   0  0  0  0  0  0  0  0  0 42  0  0
   15.1726   -9.1451    0.0014 C   0  0  0  0  0  0  0  0  0 43  0  0
   15.4522  -10.6120   -0.0001 C   0  0  0  0  0  0  0  0  0 44  0  0
   17.4510  -19.6934    0.0208 C   0  0  0  0  0  0  0  0  0 45  0  0
   17.5121  -21.0268    0.0263 C   0  0  0  0  0  0  0  0  0 46  0  0
   18.8056  -21.7170    0.0103 C   0  0  0  0  0  0  0  0  0 47  0  0
   18.8412  -23.1118    0.0162 O   0  0  0  0  0  0  0  0  0 48  0  0
   20.7110  -18.9812   -0.0262 H   0  0  0  0  0  0  0  0  0  0  0  0
   19.3394  -14.9719    0.0096 H   0  0  0  0  0  0  0  0  0  0  0  0
   18.9850  -12.4942    0.0188 H   0  0  0  0  0  0  0  0  0  0  0  0
   14.8818  -13.1668   -0.0049 H   0  0  0  0  0  0  0  0  0  0  0  0
   15.2107  -15.4657   -0.0085 H   0  0  0  0  0  0  0  0  0  0  0  0
   18.7665  -10.4109    0.0542 H   0  0  0  0  0  0  0  0  0  0  0  0
   18.3293   -8.1171    0.0641 H   0  0  0  0  0  0  0  0  0  0  0  0
   19.5843   -3.3465    0.2736 H   0  0  0  0  0  0  0  0  0  0  0  0
   18.2739   -1.6518    0.1416 H   0  0  0  0  0  0  0  0  0  0  0  0
   16.0152   -0.6528   -0.0482 H   0  0  0  0  0  0  0  0  0  0  0  0
   11.8685    1.3778   -0.2725 H   0  0  0  0  0  0  0  0  0  0  0  0
    8.0564   -0.0666    0.4475 H   0  0  0  0  0  0  0  0  0  0  0  0
    8.8458   -2.2337    0.5966 H   0  0  0  0  0  0  0  0  0  0  0  0
   14.2254   -8.8248   -0.0145 H   0  0  0  0  0  0  0  0  0  0  0  0
   14.6888  -11.2578   -0.0132 H   0  0  0  0  0  0  0  0  0  0  0  0
   16.5611  -19.2373    0.0302 H   0  0  0  0  0  0  0  0  0  0  0  0
   16.6667  -21.5607    0.0415 H   0  0  0  0  0  0  0  0  0  0  0  0
   17.9076  -23.4695    0.0315 H   0  0  0  0  0  0  0  0  0  0  0  0
  1  2  1  0  0  0  0
  2  3  2  0  0  0  0
  2  4  1  0  0  0  0
  4  5  1  0  0  0  0
  4 47  2  0  0  0  0
  5  6  2  0  0  0  0
  6  7  1  0  0  0  0
  6 45  1  0  0  0  0
  7  8  2  0  0  0  0
  8  9  1  0  0  0  0
  9 10  2  0  0  0  0
  9 14  1  0  0  0  0
 10 11  1  0  0  0  0
 11 12  2  0  0  0  0
 12 13  1  0  0  0  0
 12 15  1  0  0  0  0
 13 14  2  0  0  0  0
 15 16  1  0  0  0  0
 15 44  2  0  0  0  0
 16 17  2  0  0  0  0
 17 18  1  0  0  0  0
 18 19  1  0  0  0  0
 18 43  2  0  0  0  0
 19 20  2  0  0  0  0
 20 21  1  0  0  0  0
 21 22  1  0  0  0  0
 21 38  2  0  0  0  0
 22 23  1  0  0  0  0
 22 24  2  0  0  0  0
 24 25  1  0  0  0  0
 25 26  2  0  0  0  0
 26 27  1  0  0  0  0
 26 38  1  0  0  0  0
 27 28  2  0  0  0  0
 27 36  1  0  0  0  0
 28 29  1  0  0  0  0
 29 30  1  0  0  0  0
 29 34  2  0  0  0  0
 30 31  2  0  0  0  0
 31 32  1  0  0  0  0
 31 39  1  0  0  0  0
 32 33  2  0  0  0  0
 33 34  1  0  0  0  0
 34 35  1  0  0  0  0
 35 36  1  0  0  0  0
 36 37  1  0  0  0  0
 37 38  1  0  0  0  0
 39 40  1  0  0  0  0
 39 41  2  0  0  0  0
 39 42  2  0  0  0  0
 43 44  1  0  0  0  0
 45 46  2  0  0  0  0
 46 47  1  0  0  0  0
 47 48  1  0  0  0  0
  5 49  1  0  0  0  0
 10 50  1  0  0  0  0
 11 51  1  0  0  0  0
 13 52  1  0  0  0  0
 14 53  1  0  0  0  0
 16 54  1  0  0  0  0
 17 55  1  0  0  0  0
 23 56  1  0  0  0  0
 24 57  1  0  0  0  0
 25 58  1  0  0  0  0
 30 59  1  0  0  0  0
 32 60  1  0  0  0  0
 33 61  1  0  0  0  0
 43 62  1  0  0  0  0
 44 63  1  0  0  0  0
 45 64  1  0  0  0  0
 46 65  1  0  0  0  0
 48 66  1  0  0  0  0
M  END
>  <Substance ID> (188)
188

>  <Mouse_Female_Canc> (188)
1

>  <SAL> (188)
3

>  <Rat_Male_Canc> (188)
1

>  <TD50_Rat> (188)
2.07

>  <TD50_Mouse> (188)
NP

>  <Rat_Female_Canc> (188)
3

>  <Canc> (188)
3

>  <MolWeight> (188)
760.11

>  <Mouse_Male_Canc> (188)
1

>  <Mouse_Male_NTP> (188)
ND

>  <ChemName> (188)
C.I. Direct Brown 95

>  <Rat_Male_NTP> (188)
ND

>  <Reference> (188)
NTP108

>  <Formula> (188)
C31H18N6O9SNa2Cu 

>  <SMILES> (188)
[Na+].[O-]C(=O)c7cc(N=Nc1ccc(cc1)c6ccc(N=Nc4c(O)ccc5N3=Nc2cc(ccc2O[Cu]3Oc45)S([O-].[Na+].)(=O)=O)cc6)ccc7O

>  <Rat_Female_NTP> (188)
ND

>  <CAS> (188)
16071-86-6

>  <Mouse_Female_NTP> (188)
ND

>  <Synonyms> (188)
paranol fast brown brl; [5-[[4'-[[2,5-dihydroxy-4-[(2-hydroxy-5-sulfophenyl)azo]phenyl]azo][1,1'-biphenyl]-4-yl]azo]-2-hydroxybenzoato(2-)]copper, disodium salt; aizen primula brown brlh; amanil fast brown brl; atlantic fast brown brl; belamine fast brown brll; benzanil supra brown brln; dialuminous brown brs; diazine fast brown rsl; diazol light brown brn; diphenyl fast brown brl; Direct Brown 95; direct brown brl; direct fast brown brl; direct fast brown lmr; direct light brown brs; direct supra light brown ml; brown 4EMBL; calcodur brown brl; chloramine fast brown brl; chrome leather brown brll; chrome leather brown brsl; C.I. 30145; C.I. direct brown; Cuprate(2-), [5-[[4'-[[2,6-dihydroxy-3-[(2-hydroxy-5-sulfophenyl)azo]phenyl]azo][1,1'-biphenyl]-4-yl]azo]-2hydroxybenzoato(4-)]-, disodium; cuprofix brown gl; Derma fast brown dye; dermafix brown pl; durofast brown brl; eliamina light brown brl; enianil light brown brl; fastusol brown lbrsa; helion brown brsl; Ismafast Brown Brsl; kca light fast brown br; saturn brown lbr; solar brown pl; tetramine fast brown brp; triantine fast brown or; triantine light brown brs; triantine light brown og.

$$$$
189


 32 34  0  0  0  0  0  0  0  0999 V2000
   10.8330  -37.4163   -0.0005 C   0  0  0  0  0  0  0  0  0  0  0  0
   10.8314  -35.9527    0.0002 C   0  0  0  0  0  0  0  0  0  0  0  0
    9.6803  -38.0830   -0.0002 C   0  0  0  0  0  0  0  0  0  0  0  0
    9.6773  -35.2885   -0.0005 C   0  0  0  0  0  0  0  0  0  0  0  0
    8.4099  -37.3537   -0.0001 C   0  0  0  0  0  0  0  0  0  0  0  0
    8.4090  -36.0209   -0.0003 C   0  0  0  0  0  0  0  0  0  0  0  0
    7.1403  -35.2902    0.0002 C   0  0  0  0  0  0  0  0  0  0  0  0
    7.1419  -38.0858    0.0003 C   0  0  0  0  0  0  0  0  0  0  0  0
    5.8736  -37.3546    0.0004 C   0  0  0  0  0  0  0  0  0  0  0  0
    5.8722  -36.0236   -0.0001 C   0  0  0  0  0  0  0  0  0  0  0  0
    3.4506  -35.9613    0.0008 C   0  0  0  0  0  0  0  0  0  0  0  0
    3.4523  -37.4230    0.0004 C   0  0  0  0  0  0  0  0  0  0  0  0
    4.6020  -35.2932   -0.0002 C   0  0  0  0  0  0  0  0  0  0  0  0
    4.6063  -38.0882    0.0003 C   0  0  0  0  0  0  0  0  0  0  0  0
    4.5988  -33.8970    0.0000 N   0  0  0  0  0  0  0  0  0  0  0  0
    4.6048  -39.4847   -0.0004 N   0  0  0  0  0  0  0  0  0  0  0  0
    7.1386  -34.0534    0.0002 O   0  0  0  0  0  0  0  0  0  0  0  0
    7.1449  -39.3218    0.0004 O   0  0  0  0  0  0  0  0  0  0  0  0
    9.6780  -33.8924    0.0008 N   0  0  0  0  0  0  0  0  0  0  0  0
    9.6837  -39.4787   -0.0001 N   0  0  0  0  0  0  0  0  0  0  0  0
   11.6995  -37.9154   -0.0012 H   0  0  0  0  0  0  0  0  0  0  0  0
   11.6968  -35.4516    0.0012 H   0  0  0  0  0  0  0  0  0  0  0  0
    2.5838  -35.4628    0.0018 H   0  0  0  0  0  0  0  0  0  0  0  0
    2.5867  -37.9237    0.0001 H   0  0  0  0  0  0  0  0  0  0  0  0
    3.7317  -33.3990   -0.0001 H   0  0  0  0  0  0  0  0  0  0  0  0
    5.4637  -33.3950    0.0002 H   0  0  0  0  0  0  0  0  0  0  0  0
    3.7383  -39.9837   -0.0005 H   0  0  0  0  0  0  0  0  0  0  0  0
    5.4703  -39.9856   -0.0009 H   0  0  0  0  0  0  0  0  0  0  0  0
   10.5442  -33.3929    0.0006 H   0  0  0  0  0  0  0  0  0  0  0  0
    8.8122  -33.3920    0.0019 H   0  0  0  0  0  0  0  0  0  0  0  0
   10.5509  -39.9766   -0.0002 H   0  0  0  0  0  0  0  0  0  0  0  0
    8.8189  -39.9808    0.0001 H   0  0  0  0  0  0  0  0  0  0  0  0
  1  2  1  0  0  0  0
  6  4  1  0  0  0  0
  5  3  1  0  0  0  0
  3  1  2  0  0  0  0
  2  4  2  0  0  0  0
  5  6  2  0  0  0  0
  5  8  1  0  0  0  0
  6  7  1  0  0  0  0
  7 10  1  0  0  0  0
  9  8  1  0  0  0  0
  9 10  2  0  0  0  0
 11 12  1  0  0  0  0
  9 14  1  0  0  0  0
 10 13  1  0  0  0  0
 13 11  2  0  0  0  0
 12 14  2  0  0  0  0
 13 15  1  0  0  0  0
 14 16  1  0  0  0  0
  7 17  2  0  0  0  0
  8 18  2  0  0  0  0
  4 19  1  0  0  0  0
  3 20  1  0  0  0  0
  1 21  1  0  0  0  0
  2 22  1  0  0  0  0
 11 23  1  0  0  0  0
 12 24  1  0  0  0  0
 15 25  1  0  0  0  0
 15 26  1  0  0  0  0
 16 27  1  0  0  0  0
 16 28  1  0  0  0  0
 19 29  1  0  0  0  0
 19 30  1  0  0  0  0
 20 31  1  0  0  0  0
 20 32  1  0  0  0  0
M  END
>  <Substance ID> (189)
189

>  <Mouse_Female_Canc> (189)
1

>  <SAL> (189)
3

>  <Rat_Male_Canc> (189)
3

>  <TD50_Rat> (189)
156

>  <TD50_Mouse> (189)
NP

>  <Rat_Female_Canc> (189)
3

>  <Canc> (189)
3

>  <MolWeight> (189)
268.27

>  <Mouse_Male_Canc> (189)
2

>  <Mouse_Male_NTP> (189)
EE

>  <ChemName> (189)
C.I. Disperse Blue 1

>  <Rat_Male_NTP> (189)
CE

>  <Reference> (189)
NTP299

>  <Formula> (189)
C14H12N4O2

>  <SMILES> (189)
O=C1C2=C(C(=CC=C2N)N)C(=O)C3=C(C=CC(=C13)N)N

>  <Rat_Female_NTP> (189)
CE

>  <CAS> (189)
2475-45-8

>  <Mouse_Female_NTP> (189)
NE

>  <Synonyms> (189)
1,4,5,8-Tetraamino-9,10-anthracenedione; 1,4,5,8-tetraamino-9,10-anthraquinone; 1,4,5,8-Tetraaminoanthraquinone; 1,4,5,8-tetraminoanthraquinone; acetate blue g; acetoquinone blue l; acetoquinone blue r; acetylon fast blue g; amacel blue gg; amacel pure blue b; artisil blue sap; diacellition fast blue r; Disperse Blue 1; disperse blue no. 1; brasilazet blue gr; celanthrene pure blue brs; celliton blue bb-cf; celliton blue extra; celliton blue g; celliton blue ga-cf; C.I. 64500; cibacet sapphire blue g; cilla blue extra; C.I. Solvent Blue 18; duranol brilliant blue cb; fenacet blue g; grasol blue 2gs; kayalon fast blue br; microsetile blue eb; miketon fast blue; miketon fast blue b; nacelan blue g; neosetile blue eb; nyloquinone blue 2j; oracet sapphire blue g; perliton blue b; serinyl blue 2g; serinyl blue 3g; serinyl blue 3gn; setacyl blue 2gs; setacyl blue 2gs ii; supracet brilliant blue 2gn; supracet deep blue r.

$$$$
190


 14 13  0  0  0  0  0  0  0  0999 V2000
    9.6540  -51.1865    0.0002 N   0  0  0  0  0  0  0  0  0  0  0  0
    8.4259  -51.9215    0.0003 C   0  0  0  0  0  0  0  0  0  0  0  0
    7.1747  -51.2261    0.0000 N   0  0  0  0  0  0  0  0  0  0  0  0
    5.9734  -51.9457   -0.0004 N   0  0  0  0  0  0  0  0  0  0  0  0
    4.7228  -51.2500    0.0003 C   0  0  0  0  0  0  0  0  0  0  0  0
    3.4943  -51.9856    0.0006 N   0  0  0  0  0  0  0  0  0  0  0  0
    4.6978  -49.6854    0.0007 S   0  0  0  0  0  0  0  0  0  0  0  0
    8.4510  -53.4859   -0.0004 S   0  0  0  0  0  0  0  0  0  0  0  0
   10.5278  -51.6729    0.0004 H   0  0  0  0  0  0  0  0  0  0  0  0
    9.6384  -50.1867   -0.0002 H   0  0  0  0  0  0  0  0  0  0  0  0
    7.1585  -50.2262    0.0001 H   0  0  0  0  0  0  0  0  0  0  0  0
    5.9895  -52.9456   -0.0013 H   0  0  0  0  0  0  0  0  0  0  0  0
    2.6204  -51.4995    0.0011 H   0  0  0  0  0  0  0  0  0  0  0  0
    3.5102  -52.9855    0.0002 H   0  0  0  0  0  0  0  0  0  0  0  0
  1  2  1  0  0  0  0
  2  3  1  0  0  0  0
  3  4  1  0  0  0  0
  5  4  1  0  0  0  0
  5  6  1  0  0  0  0
  5  7  2  0  0  0  0
  2  8  2  0  0  0  0
  1  9  1  0  0  0  0
  1 10  1  0  0  0  0
  3 11  1  0  0  0  0
  4 12  1  0  0  0  0
  6 13  1  0  0  0  0
  6 14  1  0  0  0  0
M  END
>  <Substance ID> (190)
190

>  <Mouse_Female_Canc> (190)
2

>  <SAL> (190)
1

>  <Rat_Male_Canc> (190)
1

>  <TD50_Rat> (190)
NP

>  <TD50_Mouse> (190)
NP

>  <Rat_Female_Canc> (190)
1

>  <Canc> (190)
2

>  <MolWeight> (190)
150.22

>  <Mouse_Male_Canc> (190)
1

>  <Mouse_Male_NTP> (190)
ND

>  <ChemName> (190)
2,5-Dithiobiurea

>  <Rat_Male_NTP> (190)
ND

>  <Reference> (190)
NTP132

>  <Formula> (190)
C2H6N4S2

>  <SMILES> (190)
NC(=S)NNC(=S)N

>  <Rat_Female_NTP> (190)
ND

>  <CAS> (190)
142-46-1

>  <Mouse_Female_NTP> (190)
ND

>  <Synonyms> (190)
1,2-Hydrazine-o-dicarbothioamide; 1,2-Hydrazine carbothioamide; 1,2-Hydrazinedicarbothioamide; 2,5-dithiourea; Dithiobiurea; Dithiocarbamoyl hydrazine; bisthiocarbamyl hydrazine; bis(thiourea).

$$$$
191


 61 60  0  0  0  0  0  0  0  0999 V2000
   -1.1550   -2.1538    3.9215 C   0  0  0  0  0  0  0  0  0  1  0  0
   -1.3032   -3.5417    3.9663 C   0  0  0  0  0  0  0  0  0  2  0  0
   -1.0855   -4.3066    2.8196 C   0  0  0  0  0  0  0  0  0  3  0  0
   -0.7295   -3.6741    1.6280 C   0  0  0  0  0  0  0  0  0  4  0  0
   -0.5881   -2.2861    1.5913 C   0  0  0  0  0  0  0  0  0  5  0  0
   -0.7837   -1.5072    2.7375 C   0  0  0  0  0  0  0  0  0  6  0  0
   -0.6335   -0.0018    2.6830 C   0  0  2  0  0  0  0  0  0  7  0  0
    0.0323    0.4579    3.8612 O   0  0  0  0  0  0  0  0  0  8  0  0
   -1.9949    0.6885    2.5429 C   0  0  2  0  0  0  0  0  0  9  0  0
   -2.6985    0.0588    1.4193 N   0  0  0  0  0  0  0  0  0 10  0  0
   -1.8330    2.2062    2.3563 C   0  0  0  0  0  0  0  0  0 11  0  0
   -4.0634    0.5363    1.2175 C   0  0  0  0  0  0  0  0  0 12  0  0
   -1.3408   -1.5710    4.8374 H   0  0  0  0  0  0  0  0  0 13  0  0
   -1.5921   -4.0347    4.9087 H   0  0  0  0  0  0  0  0  0 14  0  0
   -1.1978   -5.4019    2.8539 H   0  0  0  0  0  0  0  0  0 15  0  0
   -0.5625   -4.2697    0.7160 H   0  0  0  0  0  0  0  0  0 16  0  0
   -0.3168   -1.8045    0.6392 H   0  0  0  0  0  0  0  0  0 17  0  0
    0.0247    0.2731    1.8260 H   0  0  0  0  0  0  0  0  0 18  0  0
    0.7948   -0.0880    3.9592 H   0  0  0  0  0  0  0  0  0 19  0  0
   -2.5786    0.4939    3.4764 H   0  0  0  0  0  0  0  0  0 20  0  0
   -2.7256   -0.9488    1.5865 H   0  0  0  0  0  0  0  0  0 21  0  0
   -2.8083    2.7400    2.3983 H   0  0  0  0  0  0  0  0  0 22  0  0
   -1.3511    2.4421    1.3803 H   0  0  0  0  0  0  0  0  0 23  0  0
   -1.2044    2.6481    3.1619 H   0  0  0  0  0  0  0  0  0 24  0  0
   -4.5421   -0.0771    0.4207 H   0  0  0  0  0  0  0  0  0 25  0  0
   -4.0769    1.5966    0.8812 H   0  0  0  0  0  0  0  0  0 26  0  0
   -4.6606    0.4223    2.1498 H   0  0  0  0  0  0  0  0  0 27  0  0
    2.7520   -1.9889    3.1649 S   0  0  0  0  0  0  0  0  0 28  0  0
    4.3244   -2.3402    3.5660 O   0  0  0  0  0  0  0  0  0 29  0  0
    1.7040   -3.1354    3.7614 O   0  0  0  0  0  0  0  0  0 30  0  0
    2.5207   -1.9846    1.7331 O   0  0  0  0  0  0  0  0  0 31  0  0
    2.5030   -0.7260    3.8347 O   0  0  0  0  0  0  0  0  0 32  0  0
    4.6606   -1.6291    4.0836 H   0  0  0  0  0  0  0  0  0 33  0  0
    0.9305   -3.1586    3.2200 H   0  0  0  0  0  0  0  0  0 34  0  0
   -0.9521   -0.0215   -3.8186 C   0  0  0  0  0  0  0  0  0 35  0  0
    0.2564   -0.7108   -3.9372 C   0  0  0  0  0  0  0  0  0 36  0  0
    1.0944   -0.8506   -2.8298 C   0  0  0  0  0  0  0  0  0 37  0  0
    0.7200   -0.2926   -1.6069 C   0  0  0  0  0  0  0  0  0 38  0  0
   -0.4922    0.3903   -1.4946 C   0  0  0  0  0  0  0  0  0 39  0  0
   -1.3470    0.5291   -2.5941 C   0  0  0  0  0  0  0  0  0 40  0  0
   -2.6544    1.2802   -2.4653 C   0  0  2  0  0  0  0  0  0 41  0  0
   -3.6498    0.6417   -3.2694 O   0  0  0  0  0  0  0  0  0 42  0  0
   -2.4965    2.7472   -2.8800 C   0  0  2  0  0  0  0  0  0 43  0  0
   -1.3985    3.3142   -2.0885 N   0  0  0  0  0  0  0  0  0 44  0  0
   -3.8102    3.5233   -2.6907 C   0  0  0  0  0  0  0  0  0 45  0  0
   -1.0134    4.6691   -2.4736 C   0  0  0  0  0  0  0  0  0 46  0  0
   -1.5885    0.0905   -4.7109 H   0  0  0  0  0  0  0  0  0 47  0  0
    0.5535   -1.1384   -4.9087 H   0  0  0  0  0  0  0  0  0 48  0  0
    2.0507   -1.3900   -2.9230 H   0  0  0  0  0  0  0  0  0 49  0  0
    1.3823   -0.3885   -0.7311 H   0  0  0  0  0  0  0  0  0 50  0  0
   -0.7686    0.8321   -0.5249 H   0  0  0  0  0  0  0  0  0 51  0  0
   -3.0104    1.2212   -1.4111 H   0  0  0  0  0  0  0  0  0 52  0  0
   -3.3876   -0.2619   -3.3311 H   0  0  0  0  0  0  0  0  0 53  0  0
   -2.2069    2.7720   -3.9595 H   0  0  0  0  0  0  0  0  0 54  0  0
   -0.5853    2.7037   -2.1868 H   0  0  0  0  0  0  0  0  0 55  0  0
   -3.7522    4.5539   -3.1062 H   0  0  0  0  0  0  0  0  0 56  0  0
   -4.0779    3.5977   -1.6121 H   0  0  0  0  0  0  0  0  0 57  0  0
   -4.6550    3.0242   -3.2168 H   0  0  0  0  0  0  0  0  0 58  0  0
   -0.1093    4.9618   -1.8928 H   0  0  0  0  0  0  0  0  0 59  0  0
   -1.8171    5.4019   -2.2409 H   0  0  0  0  0  0  0  0  0 60  0  0
   -0.7582    4.7114   -3.5564 H   0  0  0  0  0  0  0  0  0 61  0  0
  1  2  2  0  0  0  0
  1  6  1  6  0  0  0
  1 13  1  1  0  0  0
  2  3  1  6  0  0  0
  2 14  1  1  0  0  0
  3  4  2  0  0  0  0
  3 15  1  0  0  0  0
  4  5  1  0  0  0  0
  4 16  1  6  0  0  0
  5  6  2  0  0  0  0
  5 17  1  6  0  0  0
  6  7  1  0  0  0  0
  7  8  1  1  0  0  0
  7  9  1  0  0  0  0
  7 18  1  6  0  0  0
  8 19  1  0  0  0  0
  9 10  1  6  0  0  0
  9 11  1  0  0  0  0
  9 20  1  1  0  0  0
 10 12  1  0  0  0  0
 10 21  1  0  0  0  0
 11 22  1  0  0  0  0
 11 23  1  6  0  0  0
 11 24  1  1  0  0  0
 12 25  1  6  0  0  0
 12 26  1  0  0  0  0
 12 27  1  1  0  0  0
 28 29  1  0  0  0  0
 28 30  1  0  0  0  0
 28 31  2  0  0  0  0
 28 32  2  0  0  0  0
 29 33  1  1  0  0  0
 30 34  1  6  0  0  0
 35 36  2  0  0  0  0
 35 40  1  1  0  0  0
 35 47  1  6  0  0  0
 36 37  1  1  0  0  0
 36 48  1  6  0  0  0
 37 38  2  0  0  0  0
 37 49  1  0  0  0  0
 38 39  1  0  0  0  0
 38 50  1  1  0  0  0
 39 40  2  0  0  0  0
 39 51  1  1  0  0  0
 40 41  1  0  0  0  0
 41 42  1  6  0  0  0
 41 43  1  0  0  0  0
 41 52  1  1  0  0  0
 42 53  1  0  0  0  0
 43 44  1  1  0  0  0
 43 45  1  0  0  0  0
 43 54  1  6  0  0  0
 44 46  1  0  0  0  0
 44 55  1  0  0  0  0
 45 56  1  0  0  0  0
 45 57  1  1  0  0  0
 45 58  1  6  0  0  0
 46 59  1  1  0  0  0
 46 60  1  0  0  0  0
 46 61  1  6  0  0  0
M  END
>  <Substance ID> (191)
191

>  <Mouse_Female_Canc> (191)
1

>  <SAL> (191)
1

>  <Rat_Male_Canc> (191)
1

>  <TD50_Rat> (191)
NP

>  <TD50_Mouse> (191)
NP

>  <Rat_Female_Canc> (191)
1

>  <Canc> (191)
1

>  <MolWeight> (191)
428.54

>  <Mouse_Male_Canc> (191)
1

>  <Mouse_Male_NTP> (191)
NE

>  <ChemName> (191)
Ephedrine sulfate

>  <Rat_Male_NTP> (191)
NE

>  <Reference> (191)
NTP307

>  <Formula> (191)
(C10H15NO)2.H2SO4

>  <SMILES> (191)
O=S(=O)(O)O.O[C@@H](c1ccccc1)[C@H](N[C@@H3])[C@H3].O[C@@H](c1ccccc1)[C@H](N[C@@H3])[C@H3]

>  <Rat_Female_NTP> (191)
NE

>  <CAS> (191)
134-72-5

>  <Mouse_Female_NTP> (191)
NE

>  <Synonyms> (191)
1-alpha-(1-(methylamino)ethyl)benzyl alcohol sulfate; 1-phenyl-2-methylamino-propanol-1-sulfate; 1-Phenyl-2-(methylamino)propanol sulfate; (-)-ephedrine sulfate; (-)-ephedrine sulfate (2:1) (salt); isofedrol; L-ephedrine sulfate; (R-(R*,S*))-alpha-(1-(methylamino)ethyl)benzenemethanol sulfate (2:1) (salt).

$$$$
192


 40 41  0  0  0  0  0  0  0  0999 V2000
    5.7645  -75.7897   -0.2967 C   0  0  0  0  0  0  0  0  0  0  0  0
    4.3050  -74.0997    0.5927 C   0  0  0  0  0  0  0  0  0  0  0  0
    4.4801  -75.3472    0.1979 C   0  0  0  0  0  0  0  0  0  0  0  0
    6.8236  -74.9470   -0.3437 C   0  0  0  0  0  0  0  0  0  0  0  0
    6.6415  -73.5693    0.1237 C   0  0  0  0  0  0  0  0  0  0  0  0
    5.4504  -73.1568    0.5628 C   0  0  0  0  0  0  0  0  0  0  0  0
    1.9127  -74.7899    0.9022 C   0  0  0  0  0  0  0  0  0  0  0  0
    2.9428  -73.6401    1.0610 C   0  0  0  0  0  0  0  0  0  0  0  0
    8.1092  -75.4580   -1.0083 C   0  0  0  0  0  0  0  0  0  0  0  0
    8.2059  -74.8347   -1.9138 H   0  0  0  0  0  0  0  0  0  0  0  0
    7.9511  -76.9732   -1.3853 C   0  0  0  0  0  0  0  0  0  0  0  0
    9.4280  -75.1870   -0.2487 C   0  0  0  0  0  0  0  0  0  0  0  0
    7.7474  -78.0605    0.0241 Cl  0  0  0  0  0  0  0  0  0  0  0  0
    9.3547  -77.4986   -2.3189 Cl  0  0  0  0  0  0  0  0  0  0  0  0
    9.9367  -76.1196    0.5877 C   0  0  0  0  0  0  0  0  0  0  0  0
   12.0088  -74.8968    0.8419 C   0  0  0  0  0  0  0  0  0  0  0  0
   11.4479  -73.8512   -0.0348 C   0  0  0  0  0  0  0  0  0  0  0  0
   11.2730  -75.9502    1.1550 C   0  0  0  0  0  0  0  0  0  0  0  0
   10.2225  -73.9941   -0.5373 C   0  0  0  0  0  0  0  0  0  0  0  0
   13.4212  -74.7825    1.3670 C   0  0  0  0  0  0  0  0  0  0  0  0
   14.1696  -73.6279    0.6714 C   0  0  0  0  0  0  0  0  0  0  0  0
    5.8726  -76.7334   -0.6093 H   0  0  0  0  0  0  0  0  0  0  0  0
    3.7172  -75.9922    0.2415 H   0  0  0  0  0  0  0  0  0  0  0  0
    7.4144  -72.9348    0.1136 H   0  0  0  0  0  0  0  0  0  0  0  0
    5.3300  -72.2132    0.8713 H   0  0  0  0  0  0  0  0  0  0  0  0
    1.0148  -74.4790    1.2137 H   0  0  0  0  0  0  0  0  0  0  0  0
    2.2016  -75.5750    1.4503 H   0  0  0  0  0  0  0  0  0  0  0  0
    1.8570  -75.0578   -0.0596 H   0  0  0  0  0  0  0  0  0  0  0  0
    2.6512  -72.8561    0.5129 H   0  0  0  0  0  0  0  0  0  0  0  0
    2.9959  -73.3735    2.0233 H   0  0  0  0  0  0  0  0  0  0  0  0
    7.1095  -77.0389   -1.9214 H   0  0  0  0  0  0  0  0  0  0  0  0
    9.3964  -76.9286    0.8191 H   0  0  0  0  0  0  0  0  0  0  0  0
   11.9865  -73.0370   -0.2514 H   0  0  0  0  0  0  0  0  0  0  0  0
   11.6342  -76.6371    1.7857 H   0  0  0  0  0  0  0  0  0  0  0  0
    9.8410  -73.2761   -1.1195 H   0  0  0  0  0  0  0  0  0  0  0  0
   13.3922  -74.6088    2.3514 H   0  0  0  0  0  0  0  0  0  0  0  0
   13.9062  -75.6396    1.1935 H   0  0  0  0  0  0  0  0  0  0  0  0
   15.1005  -73.5685    1.0317 H   0  0  0  0  0  0  0  0  0  0  0  0
   13.6903  -72.7674    0.8442 H   0  0  0  0  0  0  0  0  0  0  0  0
   14.2041  -73.7979   -0.3134 H   0  0  0  0  0  0  0  0  0  0  0  0
  2  3  2  0  0  0  0
  4  5  1  0  0  0  0
  2  6  1  0  0  0  0
  3  1  1  0  0  0  0
  1  4  2  0  0  0  0
  5  6  2  0  0  0  0
  7  8  1  0  0  0  0
  8  2  1  0  0  0  0
  4  9  1  0  0  0  0
  9 10  1  0  0  0  0
  9 11  1  0  0  0  0
  9 12  1  0  0  0  0
 11 13  1  0  0  0  0
 11 14  1  0  0  0  0
 12 15  2  0  0  0  0
 16 17  1  0  0  0  0
 12 19  1  0  0  0  0
 15 18  1  0  0  0  0
 18 16  2  0  0  0  0
 17 19  2  0  0  0  0
 16 20  1  0  0  0  0
 20 21  1  0  0  0  0
  1 22  1  0  0  0  0
  3 23  1  0  0  0  0
  5 24  1  0  0  0  0
  6 25  1  0  0  0  0
  7 26  1  0  0  0  0
  7 27  1  0  0  0  0
  7 28  1  0  0  0  0
  8 29  1  0  0  0  0
  8 30  1  0  0  0  0
 11 31  1  0  0  0  0
 15 32  1  0  0  0  0
 17 33  1  0  0  0  0
 18 34  1  0  0  0  0
 19 35  1  0  0  0  0
 20 36  1  0  0  0  0
 20 37  1  0  0  0  0
 21 38  1  0  0  0  0
 21 39  1  0  0  0  0
 21 40  1  0  0  0  0
M  END
>  <Substance ID> (192)
192

>  <Mouse_Female_Canc> (192)
2

>  <SAL> (192)
3

>  <Rat_Male_Canc> (192)
1

>  <TD50_Rat> (192)
NP

>  <TD50_Mouse> (192)
NP

>  <Rat_Female_Canc> (192)
1

>  <Canc> (192)
2

>  <MolWeight> (192)
307.26

>  <Mouse_Male_Canc> (192)
1

>  <Mouse_Male_NTP> (192)
ND

>  <ChemName> (192)
p,p'-Ethyl-DDD

>  <Rat_Male_NTP> (192)
ND

>  <Reference> (192)
NTP156

>  <Formula> (192)
C18H20Cl2

>  <SMILES> (192)
ClC(C(C1=CC=C(C=C1)CC)C2=CC=C(C=C2)CC)Cl

>  <Rat_Female_NTP> (192)
ND

>  <CAS> (192)
72-56-0

>  <Mouse_Female_NTP> (192)
ND

>  <Synonyms> (192)
1,1'-(2,2-dichloroethylidene)bis(4-ethylbenzene); 1,1-bis(p-ethylphenyl)-2,2-dichloroethane; 1,1-dichloro-2,2-bis(p-ethylphenyl)ethane; 2,2-bis(p-ethylphenyl)-1,1-dichloroethane; 2,2-dichloro-1,1-bis(p-ethylphenyl)ethane; 2,2-dichloro-bis(p-ethylphenyl)ethane; p,p-ethyl ddd; alpha,alpha-dichloro-2,2-bis(p-ethylphenyl)ethane; Bis(p-ethylphenyl)-2,2-dichloroethane; di(p-ethylphenyl)dichloroethane; Diethyldiphenyl dichloroethane; ethylan; perthane; Q-137.

$$$$
193


 31 31  0  0  0  0  0  0  0  0999 V2000
    6.1531  -83.4933    0.7175 C   0  0  0  0  0  0  0  0  0  0  0  0
    7.1226  -82.6741    0.3046 C   0  0  0  0  0  0  0  0  0  0  0  0
    5.4813  -80.9716   -0.2601 C   0  0  0  0  0  0  0  0  0  0  0  0
    4.4276  -81.8833    0.1704 C   0  0  0  0  0  0  0  0  0  0  0  0
    6.7543  -81.3481   -0.2016 C   0  0  0  0  0  0  0  0  0  0  0  0
    4.7479  -83.0864    0.6431 C   0  0  0  0  0  0  0  0  0  0  0  0
    5.1245  -79.6085   -0.7768 C   0  0  0  0  0  0  0  0  0  0  0  0
    2.7312  -81.3969    0.0475 S   0  0  0  0  0  0  0  0  0  0  0  0
    8.4725  -83.1593    0.3707 O   0  0  0  0  0  0  0  0  0  0  0  0
    1.6725  -82.8600    0.1718 C   0  0  0  0  0  0  0  0  0  0  0  0
    9.6625  -82.3020   -0.1568 P   0  0  0  0  0  0  0  0  0  0  0  0
   10.2848  -83.1673   -1.2317 O   0  0  0  0  0  0  0  0  0  0  0  0
   10.7252  -82.3951    0.9119 O   0  0  0  0  0  0  0  0  0  0  0  0
   10.1991  -84.5577   -0.8762 C   0  0  0  0  0  0  0  0  0  0  0  0
   11.5438  -81.2126    0.8950 C   0  0  0  0  0  0  0  0  0  0  0  0
    9.4835  -80.7427   -0.7300 S   0  0  0  0  0  0  0  0  0  0  0  0
    6.3886  -84.3944    1.0814 H   0  0  0  0  0  0  0  0  0  0  0  0
    7.4699  -80.7195   -0.5066 H   0  0  0  0  0  0  0  0  0  0  0  0
    4.0294  -83.7118    0.9472 H   0  0  0  0  0  0  0  0  0  0  0  0
    5.9589  -79.1171   -1.0263 H   0  0  0  0  0  0  0  0  0  0  0  0
    4.6380  -79.0992   -0.0669 H   0  0  0  0  0  0  0  0  0  0  0  0
    4.5385  -79.6996   -1.5820 H   0  0  0  0  0  0  0  0  0  0  0  0
    0.7136  -82.5851    0.1023 H   0  0  0  0  0  0  0  0  0  0  0  0
    1.8269  -83.3099    1.0514 H   0  0  0  0  0  0  0  0  0  0  0  0
    1.8914  -83.4944   -0.5696 H   0  0  0  0  0  0  0  0  0  0  0  0
   10.6145  -85.1126   -1.5969 H   0  0  0  0  0  0  0  0  0  0  0  0
    9.2390  -84.8162   -0.7688 H   0  0  0  0  0  0  0  0  0  0  0  0
   10.6840  -84.7127   -0.0155 H   0  0  0  0  0  0  0  0  0  0  0  0
   12.2447  -81.2816    1.6049 H   0  0  0  0  0  0  0  0  0  0  0  0
   10.9736  -80.4093    1.0672 H   0  0  0  0  0  0  0  0  0  0  0  0
   11.9832  -81.1235    0.0011 H   0  0  0  0  0  0  0  0  0  0  0  0
  1  2  2  0  0  0  0
  3  4  1  0  0  0  0
  1  6  1  0  0  0  0
  2  5  1  0  0  0  0
  5  3  2  0  0  0  0
  4  6  2  0  0  0  0
  3  7  1  0  0  0  0
  4  8  1  0  0  0  0
  2  9  1  0  0  0  0
  8 10  1  0  0  0  0
  9 11  1  0  0  0  0
 11 12  1  0  0  0  0
 11 13  1  0  0  0  0
 12 14  1  0  0  0  0
 13 15  1  0  0  0  0
 11 16  2  0  0  0  0
  1 17  1  0  0  0  0
  5 18  1  0  0  0  0
  6 19  1  0  0  0  0
  7 20  1  0  0  0  0
  7 21  1  0  0  0  0
  7 22  1  0  0  0  0
 10 23  1  0  0  0  0
 10 24  1  0  0  0  0
 10 25  1  0  0  0  0
 14 26  1  0  0  0  0
 14 27  1  0  0  0  0
 14 28  1  0  0  0  0
 15 29  1  0  0  0  0
 15 30  1  0  0  0  0
 15 31  1  0  0  0  0
M  END
>  <Substance ID> (193)
193

>  <Mouse_Female_Canc> (193)
1

>  <SAL> (193)
1

>  <Rat_Male_Canc> (193)
1

>  <TD50_Rat> (193)
NP

>  <TD50_Mouse> (193)
NP

>  <Rat_Female_Canc> (193)
1

>  <Canc> (193)
2

>  <MolWeight> (193)
278.32

>  <Mouse_Male_Canc> (193)
2

>  <Mouse_Male_NTP> (193)
ND

>  <ChemName> (193)
Fenthion

>  <Rat_Male_NTP> (193)
ND

>  <Reference> (193)
NTP103

>  <Formula> (193)
C10H15O3PS2

>  <SMILES> (193)
S=P(OC1=CC(=C(C=C1)SC)C)(OC)OC

>  <Rat_Female_NTP> (193)
ND

>  <CAS> (193)
55-38-9

>  <Mouse_Female_NTP> (193)
ND

>  <Synonyms> (193)
O,O-dimethyl O-3-methyl-4-methylthiophenyl phosphorothioate; O,O-dimethyl O-(3-methyl-4-methylthiophenyl) thiophosphate; Lebaycid(R); Lebayeid; Mercaptofos; Cresol, 4-(methylthio)-, O-ester with O,O-dimethyl phosphorothioate; Mosquitocide 700; MPP; OMS 2; Phosphorothioic acid O,O-dimethyl O-[3-methyl-4-(methylthio)phenyl]ester; phosphorothioic acid O,O-dimethyl O-(4-methylthio)-m-tolyl ester; Queletox; Rid-a-Bird; S 1752; Spotten; spotton; Talodex; Thiophos; Tiguvon; O,O-dimethyl O-(4-methylmercapto-3-methylphenyl) thionophosphate; O,O-dimethyl O-4-(methylmercapto)-3-methylphenyl phosphorothioate; O,O-dimethyl O-(4-methylthio-3-methylphenyl) thiophosphate; O,O-dimethyl-O-[4-(methylthio)-m-tolyl] phosphorothioate; m-cresol, 4-(methylthio)-, O-ester with O,O-dimethyl phosphorothioate; 4-Methylmercapto-3-methylphenyl dimethyl thiophosphate; b 29493; bay 29493; Baycid; bayer 29493; bayer 9007; bayer s-1752; Baytex; Dimethyl O-(3-methyl-4-(methylthio)phenyl) thiophosphate; Dimethyl O-((4-methylmercapto)-3-methylphenyl)thionophosphate; Dimethyl O-(4-(methylthio)-m-tolyl) phosphorothioate; Dimethyl (3-methyl-4-(methylthio)phenyl) phosphorothionate; Dimethyl methylthiotolyl phosphorothioate; BX-1; BX-2; DMTP; Entex; Lebaycid.

$$$$
194


 27 27  0  0  0  0  0  0  0  0999 V2000
    8.7207  -90.8455   -0.0202 C   0  0  0  0  0  0  0  0  0  0  0  0
    9.1236  -92.1082   -0.1411 C   0  0  0  0  0  0  0  0  0  0  0  0
   11.4482  -91.4615   -0.1687 C   0  0  0  0  0  0  0  0  0  0  0  0
   11.0288  -90.0697   -0.0255 C   0  0  0  0  0  0  0  0  0  0  0  0
   10.5417  -92.4313   -0.2233 C   0  0  0  0  0  0  0  0  0  0  0  0
    9.7296  -89.7633    0.0423 C   0  0  0  0  0  0  0  0  0  0  0  0
   12.0797  -89.0031    0.0514 C   0  0  0  0  0  0  0  0  0  0  0  0
   12.4364  -88.6559   -1.2352 F   0  0  0  0  0  0  0  0  0  0  0  0
   13.2075  -89.5137    0.6645 F   0  0  0  0  0  0  0  0  0  0  0  0
   11.6019  -87.8838    0.6963 F   0  0  0  0  0  0  0  0  0  0  0  0
    7.3258  -90.6082    0.0514 N   0  0  0  0  0  0  0  0  0  0  0  0
    6.7056  -89.3470   -0.0215 C   0  0  0  0  0  0  0  0  0  0  0  0
    7.3538  -88.3183   -0.2429 O   0  0  0  0  0  0  0  0  0  0  0  0
    5.3164  -89.2780    0.1374 N   0  0  0  0  0  0  0  0  0  0  0  0
    4.6314  -88.0252    0.0020 C   0  0  0  0  0  0  0  0  0  0  0  0
    4.5730  -90.4719    0.4337 C   0  0  0  0  0  0  0  0  0  0  0  0
    8.4459  -92.8427   -0.1760 H   0  0  0  0  0  0  0  0  0  0  0  0
   12.4212  -91.6852   -0.2259 H   0  0  0  0  0  0  0  0  0  0  0  0
   10.8328  -93.3830   -0.3208 H   0  0  0  0  0  0  0  0  0  0  0  0
    9.4410  -88.8102    0.1345 H   0  0  0  0  0  0  0  0  0  0  0  0
    6.7314  -91.4045    0.1631 H   0  0  0  0  0  0  0  0  0  0  0  0
    3.6516  -88.1631    0.1468 H   0  0  0  0  0  0  0  0  0  0  0  0
    4.7839  -87.6588   -0.9159 H   0  0  0  0  0  0  0  0  0  0  0  0
    4.9804  -87.3789    0.6807 H   0  0  0  0  0  0  0  0  0  0  0  0
    3.6016  -90.2487    0.5147 H   0  0  0  0  0  0  0  0  0  0  0  0
    4.8978  -90.8623    1.2951 H   0  0  0  0  0  0  0  0  0  0  0  0
    4.7015  -91.1365   -0.3024 H   0  0  0  0  0  0  0  0  0  0  0  0
  1  2  2  0  0  0  0
  3  4  1  0  0  0  0
  1  6  1  0  0  0  0
  2  5  1  0  0  0  0
  5  3  2  0  0  0  0
  4  6  2  0  0  0  0
  7  8  1  0  0  0  0
  7  9  1  0  0  0  0
  7 10  1  0  0  0  0
  4  7  1  0  0  0  0
  1 11  1  0  0  0  0
 11 12  1  0  0  0  0
 12 13  2  0  0  0  0
 12 14  1  0  0  0  0
 14 15  1  0  0  0  0
 14 16  1  0  0  0  0
  2 17  1  0  0  0  0
  3 18  1  0  0  0  0
  5 19  1  0  0  0  0
  6 20  1  0  0  0  0
 11 21  1  0  0  0  0
 15 22  1  0  0  0  0
 15 23  1  0  0  0  0
 15 24  1  0  0  0  0
 16 25  1  0  0  0  0
 16 26  1  0  0  0  0
 16 27  1  0  0  0  0
M  END
>  <Substance ID> (194)
194

>  <Mouse_Female_Canc> (194)
1

>  <SAL> (194)
1

>  <Rat_Male_Canc> (194)
1

>  <TD50_Rat> (194)
NP

>  <TD50_Mouse> (194)
NP

>  <Rat_Female_Canc> (194)
1

>  <Canc> (194)
2

>  <MolWeight> (194)
232.20

>  <Mouse_Male_Canc> (194)
2

>  <Mouse_Male_NTP> (194)
ND

>  <ChemName> (194)
Fluometuron

>  <Rat_Male_NTP> (194)
ND

>  <Reference> (194)
NTP195

>  <Formula> (194)
C10H11F3N2O

>  <SMILES> (194)
O=C(NC1=CC=CC(=C1)C(F)(F)F)N(C)C

>  <Rat_Female_NTP> (194)
ND

>  <CAS> (194)
2164-17-2

>  <Mouse_Female_NTP> (194)
ND

>  <Synonyms> (194)
1,1-dimethyl-3-(3-trifluoromethylphenyl)urea; 1,1-Dimethyl-3-(alpha,alpha,alpha-trifluoro-m-tolyl) urea; 3-(m-Trifluoromethyl-phenyl)-1,1-Dimethyl urea; Dimethyl-3-(a,a,a-trifluoro-m-tolyl)urea; C 2059; ciba 2059; Cortoran; Cotoran; Cotoran 4L; Cotoran 80W; Cotoran 80WP; Cottenex; Cottonex; Flumeturon; Fluometuraon; herbicide c-2059; Lanex; Meturon 4L; N-(m-trifluoromethylphenyl)-N',N'-dimethylurea; N,N-dimethyl-N'-[3-(trifluoromethyl)phenyl]urea; pakhtaran; Urea, N'-(3-(trifluoromethyl)phenyl)-N,N-dimethyl-.

$$$$
195


 22 24  0  0  0  0  0  0  0  0999 V2000
   -0.4370    0.9071    0.3312 C   0  0  2  0  0  0  0  0  0  1  0  0
   -0.4616   -1.2547    0.0212 C   0  0  2  0  0  0  0  0  0  2  0  0
   -0.1232   -0.3295    1.3897 C   0  0  0  0  0  0  0  0  0  3  0  0
   -1.7430    0.5406   -0.2241 C   0  0  0  0  0  0  0  0  0  4  0  0
   -1.7441   -0.7304   -0.4351 C   0  0  0  0  0  0  0  0  0  5  0  0
    0.5282    0.7124   -0.9863 C   0  0  2  0  0  0  0  0  0  6  0  0
    0.6011   -0.8571   -1.0583 C   0  0  2  0  0  0  0  0  0  7  0  0
    1.9838   -1.2044   -0.5312 C   0  0  0  0  0  0  0  0  0  8  0  0
    2.7912   -0.1457   -0.5494 C   0  0  0  0  0  0  0  0  0  9  0  0
    2.0684    0.9889   -1.1641 C   0  0  1  0  0  0  0  0  0 10  0  0
   -0.5122    2.5973    0.9205 Cl  0  0  0  0  0  0  0  0  0 11  0  0
   -0.5771   -2.9910    0.3160 Cl  0  0  0  0  0  0  0  0  0 12  0  0
    0.8327    1.1302    1.6074 Cl  0  0  0  0  0  0  0  0  0 13  0  0
    1.3132   -0.9410    2.2478 Cl  0  0  0  0  0  0  0  0  0 14  0  0
   -3.0392    1.6279   -0.5692 Cl  0  0  0  0  0  0  0  0  0 15  0  0
   -3.0439   -1.6530   -1.0999 Cl  0  0  0  0  0  0  0  0  0 16  0  0
    2.6143    2.6171   -0.7536 Cl  0  0  0  0  0  0  0  0  0 17  0  0
    0.1110    1.3837   -1.5989 H   0  0  0  0  0  0  0  0  0  0  0  0
    0.4488   -1.2823   -1.9505 H   0  0  0  0  0  0  0  0  0  0  0  0
    2.2530   -2.1127   -0.2112 H   0  0  0  0  0  0  0  0  0  0  0  0
    3.7297   -0.1217   -0.2050 H   0  0  0  0  0  0  0  0  0  0  0  0
    2.2987    1.0152   -2.1369 H   0  0  0  0  0  0  0  0  0  0  0  0
  2  3  1  0  0  0  0
  3  1  1  0  0  0  0
  4  1  1  0  0  0  0
  5  4  2  0  0  0  0
  6  1  1  0  0  0  0
  7  6  1  0  0  0  0
  8  7  1  0  0  0  0
  9 10  1  0  0  0  0
 10  6  1  0  0  0  0
 11  1  1  0  0  0  0
 12  2  1  0  0  0  0
 13  3  1  0  0  0  0
 14  3  1  0  0  0  0
 15  4  1  0  0  0  0
 16  5  1  0  0  0  0
 17 10  1  0  0  0  0
  7  2  1  0  0  0  0
  2  5  1  0  0  0  0
  8  9  2  0  0  0  0
  6 18  1  0  0  0  0
  7 19  1  0  0  0  0
  8 20  1  0  0  0  0
  9 21  1  0  0  0  0
 10 22  1  0  0  0  0
M  END
>  <Substance ID> (195)
195

>  <Mouse_Female_Canc> (195)
3

>  <SAL> (195)
1

>  <Rat_Male_Canc> (195)
1

>  <TD50_Rat> (195)
NP

>  <TD50_Mouse> (195)
1.21

>  <Rat_Female_Canc> (195)
2

>  <Canc> (195)
3

>  <MolWeight> (195)
373.32

>  <Mouse_Male_Canc> (195)
3

>  <Mouse_Male_NTP> (195)
ND

>  <ChemName> (195)
Heptachlor

>  <Rat_Male_NTP> (195)
ND

>  <Reference> (195)
NTP9  

>  <Formula> (195)
C10H5Cl7

>  <SMILES> (195)
ClC1/C=C\C2C3(Cl)C(\Cl)=C(\Cl)C(Cl)(C12)C3(Cl)Cl

>  <Rat_Female_NTP> (195)
ND

>  <CAS> (195)
76-44-8

>  <Mouse_Female_NTP> (195)
ND

>  <Synonyms> (195)
1(3a),4,5,6,7,8,8-heptachloro-3a(1),4,7,7a-tetrahydro-4,7-methanoindene; 1,4,5,6,7,10,10-heptachloro-4,7,8,9-tetrahydro-4,7-endomethyleneindene; Velsicol 104; velsicol heptachlor; 1,4,5,6,7,10,10-heptachloro-4,7,8,9-tetrahydro-4,7-methyleneindene; 1,4,5,6,7,8,8a-heptachloro-3a,4,7,7a-tetrahydro-4,7-methanoindene; 1,4,5,6,7,8,8-heptachloro-3a,4,7,7,7a-tetrahydro-4,7-methyleneindene; 1,4,5,6,7,8,8-heptachloro-3a,4,7,7a-tetrahydro-4,7-endomethanoindene; 1,4,5,6,7,8,8-Heptachloro-3a,4,7,7a-Tetrahydro-4,7-Methano-1H-Indene; 1,4,5,6,7,8,8-heptachloro-3a,4,7,7a-tetrahydro-4,7-methanoindene; 1H-1,4,5,6,7,8,8-Heptachloro-3a,4,7,7a-tetrahydro-4,7-methanoindene; 3,4,5,6,7,8,8a-Heptachlorodicyclopentadiene; 3-Chlorochlordene; 6,7,8,9,10,10-hexachloro-1,5,5a,6,9,9a-hexahydro-3-methyl-4,7-Methano-1H-indene, 1,4,5,6,7,8,8-heptachloro-3a,4,7,7a-tetrahydro-6,9-methano-2,4,3-benzodioxathiepin; agroceres; drinox H-34; E 3314; Hepta; heptachlorane; Heptachlorotetrahydro-4,7-methanoindene; Heptagran; heptaklor; Heptamul; heptox; Rhodiachlor; Tetrahydro.

$$$$
196


  8  7  0  0  0  0  0  0  0  0999 V2000
   43.0320  -66.8504    0.1634 C   0  0  0  0  0  0  0  0  0  0  0  0
   42.5496  -65.4128    1.0696 Cl  0  0  0  0  0  0  0  0  0  0  0  0
   42.1071  -66.9392   -1.3389 Cl  0  0  0  0  0  0  0  0  0  0  0  0
   42.7203  -68.2926    1.1346 Cl  0  0  0  0  0  0  0  0  0  0  0  0
   44.5322  -66.7688   -0.1639 C   0  0  0  0  0  0  0  0  0  0  0  0
   44.8439  -65.3266   -1.1351 Cl  0  0  0  0  0  0  0  0  0  0  0  0
   45.0146  -68.2064   -1.0700 Cl  0  0  0  0  0  0  0  0  0  0  0  0
   45.4571  -66.6801    1.3385 Cl  0  0  0  0  0  0  0  0  0  0  0  0
  1  2  1  0  0  0  0
  1  3  1  0  0  0  0
  1  4  1  0  0  0  0
  1  5  1  0  0  0  0
  5  6  1  0  0  0  0
  5  7  1  0  0  0  0
  5  8  1  0  0  0  0
M  END
>  <Substance ID> (196)
196

>  <Mouse_Female_Canc> (196)
3

>  <SAL> (196)
1

>  <Rat_Male_Canc> (196)
3

>  <TD50_Rat> (196)
55.4

>  <TD50_Mouse> (196)
338

>  <Rat_Female_Canc> (196)
1

>  <Canc> (196)
3

>  <MolWeight> (196)
236.74

>  <Mouse_Male_Canc> (196)
3

>  <Mouse_Male_NTP> (196)
ND

>  <ChemName> (196)
Hexachloroethane

>  <Rat_Male_NTP> (196)
CE

>  <Reference> (196)
NTP68 & NTP361

>  <Formula> (196)
C2Cl6

>  <SMILES> (196)
ClC(C(Cl)(Cl)Cl)(Cl)Cl

>  <Rat_Female_NTP> (196)
NE

>  <CAS> (196)
67-72-1

>  <Mouse_Female_NTP> (196)
ND

>  <Synonyms> (196)
1,1,1,2,2,2-hexachloroethane; avlothane; distokal; distopan; distopin; carbon hexachloride; egitol; ethane hexachloride; ethylene hexachloride; falkitol; fasciolin; HCE; mottenhexe; perchloroethane; phenohep.

$$$$
197


 26 27  0  0  0  0  0  0  0  0999 V2000
   29.8468  -72.2233    0.0452 C   0  0  0  0  0  0  0  0  0  0  0  0
   31.1604  -72.0057    0.0356 C   0  0  0  0  0  0  0  0  0  0  0  0
   30.8304  -69.6078   -0.0365 C   0  0  0  0  0  0  0  0  0  0  0  0
   29.3854  -69.8478   -0.0278 C   0  0  0  0  0  0  0  0  0  0  0  0
   31.6771  -70.6349   -0.0058 C   0  0  0  0  0  0  0  0  0  0  0  0
   28.9170  -71.0938    0.0117 C   0  0  0  0  0  0  0  0  0  0  0  0
   33.0601  -70.4053   -0.0136 N   0  0  0  0  0  0  0  0  0  0  0  0
   33.9064  -71.4350    0.0183 N   0  0  0  0  0  0  0  0  0  0  0  0
   35.2919  -71.2164    0.0082 C   0  0  0  0  0  0  0  0  0  0  0  0
   36.1269  -72.2537    0.0341 C   0  0  0  0  0  0  0  0  0  0  0  0
   38.0573  -70.7919   -0.0155 C   0  0  0  0  0  0  0  0  0  0  0  0
   37.1411  -69.6513   -0.0423 C   0  0  0  0  0  0  0  0  0  0  0  0
   37.5744  -72.0322    0.0214 C   0  0  0  0  0  0  0  0  0  0  0  0
   35.8241  -69.8521   -0.0312 C   0  0  0  0  0  0  0  0  0  0  0  0
   29.4954  -73.1591    0.0753 H   0  0  0  0  0  0  0  0  0  0  0  0
   31.7950  -72.7783    0.0567 H   0  0  0  0  0  0  0  0  0  0  0  0
   31.1812  -68.6718   -0.0656 H   0  0  0  0  0  0  0  0  0  0  0  0
   28.7504  -69.0756   -0.0514 H   0  0  0  0  0  0  0  0  0  0  0  0
   27.9305  -71.2575    0.0184 H   0  0  0  0  0  0  0  0  0  0  0  0
   33.4116  -69.4696   -0.0430 H   0  0  0  0  0  0  0  0  0  0  0  0
   33.5511  -72.3692    0.0497 H   0  0  0  0  0  0  0  0  0  0  0  0
   35.7647  -73.1853    0.0623 H   0  0  0  0  0  0  0  0  0  0  0  0
   39.0457  -70.6400   -0.0249 H   0  0  0  0  0  0  0  0  0  0  0  0
   37.5039  -68.7198   -0.0689 H   0  0  0  0  0  0  0  0  0  0  0  0
   38.1999  -72.8122    0.0404 H   0  0  0  0  0  0  0  0  0  0  0  0
   35.1990  -69.0717   -0.0499 H   0  0  0  0  0  0  0  0  0  0  0  0
  1  2  2  0  0  0  0
  3  4  1  0  0  0  0
  1  6  1  0  0  0  0
  2  5  1  0  0  0  0
  5  3  2  0  0  0  0
  4  6  2  0  0  0  0
  5  7  1  0  0  0  0
  7  8  1  0  0  0  0
  8  9  1  0  0  0  0
  9 10  2  0  0  0  0
 11 12  1  0  0  0  0
  9 14  1  0  0  0  0
 10 13  1  0  0  0  0
 13 11  2  0  0  0  0
 12 14  2  0  0  0  0
  1 15  1  0  0  0  0
  2 16  1  0  0  0  0
  3 17  1  0  0  0  0
  4 18  1  0  0  0  0
  6 19  1  0  0  0  0
  7 20  1  0  0  0  0
  8 21  1  0  0  0  0
 10 22  1  0  0  0  0
 11 23  1  0  0  0  0
 12 24  1  0  0  0  0
 13 25  1  0  0  0  0
 14 26  1  0  0  0  0
M  END
>  <Substance ID> (197)
197

>  <Mouse_Female_Canc> (197)
3

>  <SAL> (197)
3

>  <Rat_Male_Canc> (197)
3

>  <TD50_Rat> (197)
5.59

>  <TD50_Mouse> (197)
26

>  <Rat_Female_Canc> (197)
3

>  <Canc> (197)
3

>  <MolWeight> (197)
184.24

>  <Mouse_Male_Canc> (197)
1

>  <Mouse_Male_NTP> (197)
ND

>  <ChemName> (197)
Hydrazobenzene

>  <Rat_Male_NTP> (197)
ND

>  <Reference> (197)
NTP92

>  <Formula> (197)
C12H12N2

>  <SMILES> (197)
N(C1=CC=CC=C1)NC2=CC=CC=C2

>  <Rat_Female_NTP> (197)
ND

>  <CAS> (197)
122-66-7

>  <Mouse_Female_NTP> (197)
ND

>  <Synonyms> (197)
1,1'-hydrazodibenzene; 1,2-Diphenyldrazine; 1,2-Diphenylhydrazine; Diphenylhydrazine, 1,2-; DPH; hydrazodibenzene; N,N'-Bianiline; N,N'-diphenylhydrazine; (sym)-diphenylhydrazine.

$$$$
198


 24 24  0  0  0  0  0  0  0  0999 V2000
   40.0432  -77.4387   -0.2353 C   0  0  0  0  0  0  0  0  0  0  0  0
   41.2916  -77.4477    0.2474 C   0  0  0  0  0  0  0  0  0  0  0  0
   42.1107  -76.2162    0.2431 C   0  0  0  0  0  0  0  0  0  0  0  0
   41.5461  -74.9211   -0.2935 C   0  0  0  0  0  0  0  0  0  0  0  0
   40.0166  -74.9048   -0.1271 C   0  0  0  0  0  0  0  0  0  0  0  0
   39.4205  -76.1655   -0.7962 C   0  0  0  0  0  0  0  0  0  0  0  0
   43.2853  -76.2622    0.6217 O   0  0  0  0  0  0  0  0  0  0  0  0
   39.6422  -74.8684    1.3851 C   0  0  0  0  0  0  0  0  0  0  0  0
   39.4375  -73.6409   -0.7865 C   0  0  0  0  0  0  0  0  0  0  0  0
   39.2553  -78.7156   -0.2576 C   0  0  0  0  0  0  0  0  0  0  0  0
   41.6742  -78.2955    0.6145 H   0  0  0  0  0  0  0  0  0  0  0  0
   41.9421  -74.1534    0.2103 H   0  0  0  0  0  0  0  0  0  0  0  0
   41.7745  -74.8371   -1.2635 H   0  0  0  0  0  0  0  0  0  0  0  0
   39.5939  -76.1245   -1.7802 H   0  0  0  0  0  0  0  0  0  0  0  0
   38.4343  -76.1857   -0.6316 H   0  0  0  0  0  0  0  0  0  0  0  0
   38.6470  -74.8581    1.4823 H   0  0  0  0  0  0  0  0  0  0  0  0
   40.0261  -74.0457    1.8043 H   0  0  0  0  0  0  0  0  0  0  0  0
   40.0127  -75.6781    1.8403 H   0  0  0  0  0  0  0  0  0  0  0  0
   38.4436  -73.6328   -0.6770 H   0  0  0  0  0  0  0  0  0  0  0  0
   39.6651  -73.6383   -1.7603 H   0  0  0  0  0  0  0  0  0  0  0  0
   39.8270  -72.8291   -0.3514 H   0  0  0  0  0  0  0  0  0  0  0  0
   38.3497  -78.5424   -0.6445 H   0  0  0  0  0  0  0  0  0  0  0  0
   39.1579  -79.0640    0.6747 H   0  0  0  0  0  0  0  0  0  0  0  0
   39.7326  -79.3927   -0.8178 H   0  0  0  0  0  0  0  0  0  0  0  0
  1  2  2  0  0  0  0
  1  6  1  0  0  0  0
  2  3  1  0  0  0  0
  3  4  1  0  0  0  0
  4  5  1  0  0  0  0
  5  6  1  0  0  0  0
  3  7  2  0  0  0  0
  5  8  1  0  0  0  0
  5  9  1  0  0  0  0
  1 10  1  0  0  0  0
  2 11  1  0  0  0  0
  4 12  1  0  0  0  0
  4 13  1  0  0  0  0
  6 14  1  0  0  0  0
  6 15  1  0  0  0  0
  8 16  1  0  0  0  0
  8 17  1  0  0  0  0
  8 18  1  0  0  0  0
  9 19  1  0  0  0  0
  9 20  1  0  0  0  0
  9 21  1  0  0  0  0
 10 22  1  0  0  0  0
 10 23  1  0  0  0  0
 10 24  1  0  0  0  0
M  END
>  <Substance ID> (198)
198

>  <Mouse_Female_Canc> (198)
1

>  <SAL> (198)
1

>  <Rat_Male_Canc> (198)
3

>  <TD50_Rat> (198)
1210

>  <TD50_Mouse> (198)
NP

>  <Rat_Female_Canc> (198)
1

>  <Canc> (198)
3

>  <MolWeight> (198)
138.21

>  <Mouse_Male_Canc> (198)
2

>  <Mouse_Male_NTP> (198)
EE

>  <ChemName> (198)
Isophorone

>  <Rat_Male_NTP> (198)
SE

>  <Reference> (198)
NTP291

>  <Formula> (198)
C9H14O

>  <SMILES> (198)
CC1(CC(=CC(=O)C1)C)C

>  <Rat_Female_NTP> (198)
NE

>  <CAS> (198)
78-59-1

>  <Mouse_Female_NTP> (198)
NE

>  <Synonyms> (198)
1,1,3-trimethyl-3-cyclohexene-5-one; 1,5,5-Trimethyl-1-cyclohexen-3-one; 3,5,5-Trimethyl-2-cyclohexen-1-one; 3,5,5-Trimethyl-2-Cyclohexenone; 3,5,5-Trimethylcyclohex-2-enone; 3,5,5-Trimethylcyclohexenone; Alpha-isophorone; Isoacetophorone; isoforon.

$$$$
199


 62 63  0  0  0  0  0  0  0  0999 V2000
   37.5450  -83.9320    0.6845 C   0  0  2  0  0  0  0  0  0  0  0  0
   36.3851  -83.2969    0.0139 O   0  0  0  0  0  0  0  0  0  0  0  0
   35.0898  -83.4288    0.6637 C   0  0  0  0  0  0  0  0  0  0  0  0
   33.9274  -82.8218   -0.0152 C   0  0  0  0  0  0  0  0  0  0  0  0
   32.6896  -83.0689    0.4721 C   0  0  0  0  0  0  0  0  0  0  0  0
   31.4783  -82.4877   -0.2080 C   0  0  0  0  0  0  0  0  0  0  0  0
   47.3432  -83.9423    0.7110 C   0  0  0  0  0  0  0  0  0  0  0  0
   45.8466  -83.6406    1.0129 C   0  0  1  0  0  0  0  0  0  0  0  0
   44.9853  -82.9180   -0.1896 C   0  0  2  0  0  0  0  0  0  0  0  0
   43.5325  -82.7105    0.3244 C   0  0  0  0  0  0  0  0  0  0  0  0
   42.5160  -83.6308   -0.0212 O   0  0  0  0  0  0  0  0  0  0  0  0
   41.2038  -83.1966    0.4563 C   0  0  0  0  0  0  0  0  0  0  0  0
   40.1835  -84.2051   -0.0328 C   0  0  0  0  0  0  0  0  0  0  0  0
   37.1189  -85.6077   -0.8339 C   0  0  0  0  0  0  0  0  0  0  0  0
   37.2378  -85.4239    0.7068 C   0  0  0  0  0  0  0  0  0  0  0  0
   38.7205  -83.8767   -0.3923 C   0  0  2  0  0  0  0  0  0  0  0  0
   38.4255  -85.1139   -1.2621 N   0  0  0  0  0  0  0  0  0  0  0  0
   39.3694  -86.1915   -0.7905 C   0  0  0  0  0  0  0  0  0  0  0  0
   40.5333  -85.4485   -0.2919 C   0  0  0  0  0  0  0  0  0  0  0  0
   43.2381  -81.7136    0.9952 O   0  0  0  0  0  0  0  0  0  0  0  0
   44.9541  -83.7676   -1.3398 O   0  0  0  0  0  0  0  0  0  0  0  0
   45.5371  -81.4583   -0.6257 C   0  0  0  0  0  0  0  0  0  0  0  0
   44.5729  -80.8905   -1.6855 C   0  0  0  0  0  0  0  0  0  0  0  0
   45.5613  -80.5756    0.5037 O   0  0  0  0  0  0  0  0  0  0  0  0
   46.9411  -81.4369   -1.2825 C   0  0  0  0  0  0  0  0  0  0  0  0
   45.2688  -84.9141    1.4607 O   0  0  0  0  0  0  0  0  0  0  0  0
   45.4094  -85.9730    0.4884 C   0  0  0  0  0  0  0  0  0  0  0  0
   34.9409  -84.0453    1.7022 O   0  0  0  0  0  0  0  0  0  0  0  0
   34.1016  -81.9621   -1.2251 C   0  0  0  0  0  0  0  0  0  0  0  0
   37.7424  -83.5194    1.5737 H   0  0  0  0  0  0  0  0  0  0  0  0
   32.5789  -83.6391    1.2861 H   0  0  0  0  0  0  0  0  0  0  0  0
   30.6533  -82.7697    0.2816 H   0  0  0  0  0  0  0  0  0  0  0  0
   31.4347  -82.8173   -1.1511 H   0  0  0  0  0  0  0  0  0  0  0  0
   31.5415  -81.4897   -0.2066 H   0  0  0  0  0  0  0  0  0  0  0  0
   47.7629  -84.3783    1.5070 H   0  0  0  0  0  0  0  0  0  0  0  0
   47.8217  -83.0879    0.5084 H   0  0  0  0  0  0  0  0  0  0  0  0
   47.4079  -84.5550   -0.0767 H   0  0  0  0  0  0  0  0  0  0  0  0
   45.7955  -82.9328    1.7175 H   0  0  0  0  0  0  0  0  0  0  0  0
   41.1983  -83.1630    1.4557 H   0  0  0  0  0  0  0  0  0  0  0  0
   40.9903  -82.2906    0.0907 H   0  0  0  0  0  0  0  0  0  0  0  0
   36.3742  -85.0595   -1.2146 H   0  0  0  0  0  0  0  0  0  0  0  0
   36.9876  -86.5674   -1.0821 H   0  0  0  0  0  0  0  0  0  0  0  0
   37.9822  -85.9629    1.1011 H   0  0  0  0  0  0  0  0  0  0  0  0
   36.3848  -85.6328    1.1850 H   0  0  0  0  0  0  0  0  0  0  0  0
   38.7021  -82.9264   -0.7032 H   0  0  0  0  0  0  0  0  0  0  0  0
   38.9539  -86.7334   -0.0599 H   0  0  0  0  0  0  0  0  0  0  0  0
   39.6285  -86.7929   -1.5462 H   0  0  0  0  0  0  0  0  0  0  0  0
   41.4503  -85.8278   -0.1680 H   0  0  0  0  0  0  0  0  0  0  0  0
   44.4302  -83.3251   -2.0676 H   0  0  0  0  0  0  0  0  0  0  0  0
   44.8892  -79.9869   -1.9746 H   0  0  0  0  0  0  0  0  0  0  0  0
   43.6557  -80.8127   -1.2948 H   0  0  0  0  0  0  0  0  0  0  0  0
   44.5474  -81.5027   -2.4758 H   0  0  0  0  0  0  0  0  0  0  0  0
   45.9034  -79.6799    0.2201 H   0  0  0  0  0  0  0  0  0  0  0  0
   47.1876  -80.4955   -1.5128 H   0  0  0  0  0  0  0  0  0  0  0  0
   46.9287  -81.9909   -2.1150 H   0  0  0  0  0  0  0  0  0  0  0  0
   47.6141  -81.8104   -0.6440 H   0  0  0  0  0  0  0  0  0  0  0  0
   44.9995  -86.8117    0.8468 H   0  0  0  0  0  0  0  0  0  0  0  0
   46.3795  -86.1294    0.3031 H   0  0  0  0  0  0  0  0  0  0  0  0
   44.9464  -85.7119   -0.3587 H   0  0  0  0  0  0  0  0  0  0  0  0
   33.2073  -81.6449   -1.5407 H   0  0  0  0  0  0  0  0  0  0  0  0
   34.5419  -82.4915   -1.9502 H   0  0  0  0  0  0  0  0  0  0  0  0
   34.6722  -81.1737   -0.9951 H   0  0  0  0  0  0  0  0  0  0  0  0
  1  2  1  0  0  0  0
  2  3  1  0  0  0  0
  3  4  1  0  0  0  0
  4  5  2  0  0  0  0
  6  5  1  0  0  0  0
  7  8  1  0  0  0  0
  8  9  1  0  0  0  0
  9 10  1  0  0  0  0
 10 11  1  0  0  0  0
 12 11  1  0  0  0  0
 12 13  1  0  0  0  0
 14 17  1  0  0  0  0
 16  1  1  0  0  0  0
  1 15  1  0  0  0  0
 15 14  1  0  0  0  0
 16 17  1  0  0  0  0
 17 18  1  0  0  0  0
 18 19  1  0  0  0  0
 19 13  2  0  0  0  0
 13 16  1  0  0  0  0
 10 20  2  0  0  0  0
  9 21  1  0  0  0  0
  9 22  1  0  0  0  0
 22 23  1  0  0  0  0
 22 24  1  0  0  0  0
 22 25  1  0  0  0  0
  8 26  1  0  0  0  0
 26 27  1  0  0  0  0
  3 28  2  0  0  0  0
  4 29  1  0  0  0  0
  1 30  1  0  0  0  0
  5 31  1  0  0  0  0
  6 32  1  0  0  0  0
  6 33  1  0  0  0  0
  6 34  1  0  0  0  0
  7 35  1  0  0  0  0
  7 36  1  0  0  0  0
  7 37  1  0  0  0  0
  8 38  1  0  0  0  0
 12 39  1  0  0  0  0
 12 40  1  0  0  0  0
 14 41  1  0  0  0  0
 14 42  1  0  0  0  0
 15 43  1  0  0  0  0
 15 44  1  0  0  0  0
 16 45  1  0  0  0  0
 18 46  1  0  0  0  0
 18 47  1  0  0  0  0
 19 48  1  0  0  0  0
 21 49  1  0  0  0  0
 23 50  1  0  0  0  0
 23 51  1  0  0  0  0
 23 52  1  0  0  0  0
 24 53  1  0  0  0  0
 25 54  1  0  0  0  0
 25 55  1  0  0  0  0
 25 56  1  0  0  0  0
 27 57  1  0  0  0  0
 27 58  1  0  0  0  0
 27 59  1  0  0  0  0
 29 60  1  0  0  0  0
 29 61  1  0  0  0  0
 29 62  1  0  0  0  0
M  END
>  <Substance ID> (199)
199

>  <Mouse_Female_Canc> (199)
ND

>  <SAL> (199)
3

>  <Rat_Male_Canc> (199)
3

>  <TD50_Rat> (199)
0.476

>  <TD50_Mouse> (199)
ND

>  <Rat_Female_Canc> (199)
3

>  <Canc> (199)
3

>  <MolWeight> (199)
411.49

>  <Mouse_Male_Canc> (199)
ND

>  <Mouse_Male_NTP> (199)
ND

>  <ChemName> (199)
Lasiocarpine

>  <Rat_Male_NTP> (199)
ND

>  <Reference> (199)
NTP39

>  <Formula> (199)
C21H33NO7

>  <SMILES> (199)
CO[CH](C)[C](O)(C(=O)OCC1=CCN2CC[CH](OC(=O)C(C)=CC)[CH]12)C(C)(C)O

>  <Rat_Female_NTP> (199)
ND

>  <CAS> (199)
303-34-4

>  <Mouse_Female_NTP> (199)
ND

>  <Synonyms> (199)
2,3,5,7alphabeta-tetrahydro-1-hydroxy-1H-pyrrolizine-7-methanol-1-angelate-7-(2,3-dihydroxy)-2- (1-methoxyethyl)-3-methylbutyrate; 2-methyl-2-Butenoic acid, [1S-[1alpha(Z),7(2S*,3R*),7alpha]]-7-[[2,3-dihydroxy-2-(1-methoxyethyl)-3-methyl-1-oxobutoxy]methyl]-2,3,5,alpha-tetrahydro-1H-pyrrolizin-1-yl ester; 2-methyl-2-butenoic acid 7-((2,3-dihydroxy-2-(1-methoxyethyl)-3-methyl-1-oxobutoxy)methyl)-2,3,5,7a-tetrahydro-1H-pyrrolizin-1-yl ester; (7alpha-angelyloxy-5,6,7,8alpha-tetrahydro-3H-pyrrolizin-1-yl)methyl-2,3-dihydroxy-2-(1'-methoxyethyl)-3-methylbutyrate; heliotridine ester with lasiocarpum and angelic acid; stereoisomer of 7-(2,3-dihydroxy-2-(1-methoxyethyl)-3-methyl-1-oxobutoxy)-methyl-2,3,5,7alpha-tetrahydro-1H-pyrrolizin-1-yl-2-methyl-2-butenoate; (Z)-2-methylcrotonic acid 2,3-dihydroxy-2-(1-methoxyethyl)-3-methylbutyrate (ester).

$$$$
200


 18 18  0  0  0  0  0  0  0  0999 V2000
   29.0137  -90.6711   -0.4251 C   0  0  0  0  0  0  0  0  0  0  0  0
   29.1690  -91.9509    0.4654 C   0  0  0  0  0  0  0  0  0  0  0  0
   30.1959  -92.7161   -0.4337 C   0  0  0  0  0  0  0  0  0  0  0  0
   31.5992  -92.0578   -0.5291 C   0  0  0  0  0  0  0  0  0  0  0  0
   31.4358  -90.6348   -0.0157 C   0  0  0  0  0  0  0  0  0  0  0  0
   30.2861  -89.7851   -0.5347 C   0  0  0  0  0  0  0  0  0  0  0  0
   30.2416  -88.4877    0.6621 Cl  0  0  0  0  0  0  0  0  0  0  0  0
   32.9647  -89.7530   -0.0513 Cl  0  0  0  0  0  0  0  0  0  0  0  0
   32.6888  -92.7428    0.6799 Cl  0  0  0  0  0  0  0  0  0  0  0  0
   30.3736  -94.4444   -0.1206 Cl  0  0  0  0  0  0  0  0  0  0  0  0
   27.6403  -92.8326    0.3969 Cl  0  0  0  0  0  0  0  0  0  0  0  0
   27.6082  -89.6549   -0.0957 Cl  0  0  0  0  0  0  0  0  0  0  0  0
   28.8556  -91.0987   -1.3152 H   0  0  0  0  0  0  0  0  0  0  0  0
   29.4190  -91.8119    1.4236 H   0  0  0  0  0  0  0  0  0  0  0  0
   29.7475  -92.6310   -1.3234 H   0  0  0  0  0  0  0  0  0  0  0  0
   31.9391  -92.1642   -1.4635 H   0  0  0  0  0  0  0  0  0  0  0  0
   31.1426  -90.8006    0.9259 H   0  0  0  0  0  0  0  0  0  0  0  0
   30.3617  -89.4460   -1.4724 H   0  0  0  0  0  0  0  0  0  0  0  0
  1  2  1  0  0  0  0
  1  6  1  0  0  0  0
  2  3  1  0  0  0  0
  3  4  1  0  0  0  0
  4  5  1  0  0  0  0
  5  6  1  0  0  0  0
  6  7  1  0  0  0  0
  5  8  1  0  0  0  0
  4  9  1  0  0  0  0
  3 10  1  0  0  0  0
  2 11  1  0  0  0  0
  1 12  1  0  0  0  0
  1 13  1  0  0  0  0
  2 14  1  0  0  0  0
  3 15  1  0  0  0  0
  4 16  1  0  0  0  0
  5 17  1  0  0  0  0
  6 18  1  0  0  0  0
M  END
>  <Substance ID> (200)
200

>  <Mouse_Female_Canc> (200)
3

>  <SAL> (200)
1

>  <Rat_Male_Canc> (200)
1

>  <TD50_Rat> (200)
NP

>  <TD50_Mouse> (200)
30.7

>  <Rat_Female_Canc> (200)
1

>  <Canc> (200)
3

>  <MolWeight> (200)
290.83

>  <Mouse_Male_Canc> (200)
3

>  <Mouse_Male_NTP> (200)
ND

>  <ChemName> (200)
Lindane

>  <Rat_Male_NTP> (200)
ND

>  <Reference> (200)
CPDB

>  <Formula> (200)
C6H6Cl6

>  <SMILES> (200)
Cl[C@H]1[C@H](Cl)[C@@H](Cl)[C@@H](Cl)[C@H](Cl)[C@H]1Cl

>  <Rat_Female_NTP> (200)
ND

>  <CAS> (200)
58-89-9

>  <Mouse_Female_NTP> (200)
ND

>  <Synonyms> (200)
gamma-HCH; gamma-1,2,3,4,5,6-Hexachlorocyclohexane; 1,2,3,4,5,6-hexachlorocyclohexane (1alpha,2alpha,3beta,4alpha,5alpha,6beta); BHC; Hexachlorane; 1,2,3,4,5,6-Hexachlorocyclohexane gamma isomer; Isotox; Benzene hexachloride; gamma BHC; gamma-hexachlorocyclohexane; 1,2,3,4,5,6-hexachlorocyclohexane; Benhexachlor; Kwell-R; gamma-BHC Benhexachlor; (1alpha,2alpha,3beta,4alpha,5alpha,6beta)-1,2,3,4,5,6-hexachlorocyclohexane; Benzex; Gammexane; Gexane; Jacutin; Kwell; 1alpha,2alpha,3beta,4alpha,5alpha,6beta-Hexachlorocyclohexane; gamma-benzene hexachloride; gamma hexachlor; Aparasin; Aphtitria; Esoderm; Gammalin; Gamene; Gamiso; Hexachlorocyclohexane, gamma-isomer; Borer Spray; verindal ultra; Viton; spritzlindane; streunex; TAP 85; TRI-6; Nexit; neo-scabicidol; nexen-fb; nexol-e; novigam; nexit-stark; nicochloran; pedraczak; omnitox; ovadziak; pflanzol; PLK; owadziak; quellada; Sang gamma; silvanol; gamma-hexachlorane; gamma-hexachlorobenzene; hecoltox; hexatox; hexaverm; hexicide; hilbeech; hexyclan; HGI; hortex; hungaria l7; inexit; kokotine; lasochron; lendine; lentox; lidenal; lindafor; lindagam; lindagrain; lindagranox; lindapoudre; lindex; linvur; mglawik l; gammopaz; gamma-lindane; lindosep; lintox; lorexane; milbol 49; mszycol; aficide; aalindan; agrisol g-20; agrocide; agrocide 2; agrocide 6g; agrocide 7; agrocide wp; agrocide iii; agronexit; aphtiria; arbitex; aplidal; ameisenatod; BBH; benhexol; ben-hex; bentox 10; benzene hexachloride-gamma-isomer; Bexol; celanex; chloresene; codechine; DBH; detmol-extrakt; detox 25; dol granule; drill tox-spezial aglukon; devoran; entomoxan; exagama; forlin; forst-nexen; gamacarbatox; gamma-COL; gammalin 20; Gammaterr; gammex; gallogama; gamacid; gamaphex; Gammahexa; gammahexane; geobilan; geolin g 3; HCC; HCCH; Novigan; Lindamul; Lindaterra; Lindalo; Benzene hexachloride, all isomers; LINDANE (BENZENE HEXACHLOROIDE-GAMMA ISOMER); gamma-Hexachlorocyclohexane ; BHC (alpha-, beta-, gamma-); gamma-BHC (lindane).

$$$$
201


 41 42  0  0  0  0  0  0  0  0999 V2000
   40.4235 -105.4268    0.1599 C   0  0  0  0  0  0  0  0  0  0  0  0
   41.6639 -105.8511    0.3383 C   0  0  0  0  0  0  0  0  0  0  0  0
   42.5777 -103.6323    0.0841 C   0  0  0  0  0  0  0  0  0  0  0  0
   41.1742 -103.1526   -0.1091 C   0  0  0  0  0  0  0  0  0  0  0  0
   42.7996 -104.9333    0.2987 C   0  0  0  0  0  0  0  0  0  0  0  0
   40.1539 -104.0270   -0.0730 C   0  0  0  0  0  0  0  0  0  0  0  0
   44.1641 -105.5994    0.5111 C   0  0  0  0  0  0  0  0  0  0  0  0
   38.8179 -103.6186   -0.2563 N   0  0  0  0  0  0  0  0  0  0  0  0
   38.4875 -102.2410   -0.4637 C   0  0  0  0  0  0  0  0  0  0  0  0
   37.7667 -104.6079   -0.2356 C   0  0  0  0  0  0  0  0  0  0  0  0
   45.5338 -104.9405    0.2997 C   0  0  0  0  0  0  0  0  0  0  0  0
   46.5637 -105.7818    0.3463 C   0  0  0  0  0  0  0  0  0  0  0  0
   48.1787 -104.0511   -0.0653 C   0  0  0  0  0  0  0  0  0  0  0  0
   47.0548 -103.0788   -0.1175 C   0  0  0  0  0  0  0  0  0  0  0  0
   47.9220 -105.3329    0.1568 C   0  0  0  0  0  0  0  0  0  0  0  0
   45.7918 -103.5002    0.0529 C   0  0  0  0  0  0  0  0  0  0  0  0
   49.5203 -103.6530   -0.2476 N   0  0  0  0  0  0  0  0  0  0  0  0
   49.8532 -102.2766   -0.4596 C   0  0  0  0  0  0  0  0  0  0  0  0
   50.5700 -104.6438   -0.2211 C   0  0  0  0  0  0  0  0  0  0  0  0
   39.6669 -106.0801    0.1865 H   0  0  0  0  0  0  0  0  0  0  0  0
   41.8279 -106.8235    0.5042 H   0  0  0  0  0  0  0  0  0  0  0  0
   43.3413 -102.9873    0.0532 H   0  0  0  0  0  0  0  0  0  0  0  0
   40.9949 -102.1813   -0.2652 H   0  0  0  0  0  0  0  0  0  0  0  0
   44.1628 -105.9004    1.4647 H   0  0  0  0  0  0  0  0  0  0  0  0
   44.1621 -106.3978   -0.0910 H   0  0  0  0  0  0  0  0  0  0  0  0
   37.4979 -102.1478   -0.5729 H   0  0  0  0  0  0  0  0  0  0  0  0
   38.9461 -101.9082   -1.2877 H   0  0  0  0  0  0  0  0  0  0  0  0
   38.7875 -101.7035    0.3245 H   0  0  0  0  0  0  0  0  0  0  0  0
   36.8842 -104.1602   -0.3791 H   0  0  0  0  0  0  0  0  0  0  0  0
   37.7638 -105.0734    0.6495 H   0  0  0  0  0  0  0  0  0  0  0  0
   37.9230 -105.2763   -0.9628 H   0  0  0  0  0  0  0  0  0  0  0  0
   46.3916 -106.7519    0.5174 H   0  0  0  0  0  0  0  0  0  0  0  0
   47.2401 -102.1096   -0.2798 H   0  0  0  0  0  0  0  0  0  0  0  0
   48.6734 -105.9917    0.1932 H   0  0  0  0  0  0  0  0  0  0  0  0
   45.0328 -102.8503    0.0141 H   0  0  0  0  0  0  0  0  0  0  0  0
   50.8431 -102.1854   -0.5677 H   0  0  0  0  0  0  0  0  0  0  0  0
   49.5529 -101.7357    0.3261 H   0  0  0  0  0  0  0  0  0  0  0  0
   49.3963 -101.9460   -1.2855 H   0  0  0  0  0  0  0  0  0  0  0  0
   51.4534 -104.1980   -0.3651 H   0  0  0  0  0  0  0  0  0  0  0  0
   50.4139 -105.3149   -0.9459 H   0  0  0  0  0  0  0  0  0  0  0  0
   50.5708 -105.1056    0.6659 H   0  0  0  0  0  0  0  0  0  0  0  0
  1  2  2  0  0  0  0
  3  4  1  0  0  0  0
  1  6  1  0  0  0  0
  2  5  1  0  0  0  0
  5  3  2  0  0  0  0
  4  6  2  0  0  0  0
  5  7  1  0  0  0  0
  6  8  1  0  0  0  0
  8  9  1  0  0  0  0
  8 10  1  0  0  0  0
  7 11  1  0  0  0  0
 11 12  2  0  0  0  0
 13 14  1  0  0  0  0
 11 16  1  0  0  0  0
 12 15  1  0  0  0  0
 15 13  2  0  0  0  0
 14 16  2  0  0  0  0
 13 17  1  0  0  0  0
 17 18  1  0  0  0  0
 17 19  1  0  0  0  0
  1 20  1  0  0  0  0
  2 21  1  0  0  0  0
  3 22  1  0  0  0  0
  4 23  1  0  0  0  0
  7 24  1  0  0  0  0
  7 25  1  0  0  0  0
  9 26  1  0  0  0  0
  9 27  1  0  0  0  0
  9 28  1  0  0  0  0
 10 29  1  0  0  0  0
 10 30  1  0  0  0  0
 10 31  1  0  0  0  0
 12 32  1  0  0  0  0
 14 33  1  0  0  0  0
 15 34  1  0  0  0  0
 16 35  1  0  0  0  0
 18 36  1  0  0  0  0
 18 37  1  0  0  0  0
 18 38  1  0  0  0  0
 19 39  1  0  0  0  0
 19 40  1  0  0  0  0
 19 41  1  0  0  0  0
M  END
>  <Substance ID> (201)
201

>  <Mouse_Female_Canc> (201)
3

>  <SAL> (201)
1

>  <Rat_Male_Canc> (201)
3

>  <TD50_Rat> (201)
16.4

>  <TD50_Mouse> (201)
207

>  <Rat_Female_Canc> (201)
3

>  <Canc> (201)
3

>  <MolWeight> (201)
254.37

>  <Mouse_Male_Canc> (201)
2

>  <Mouse_Male_NTP> (201)
ND

>  <ChemName> (201)
4,4'-Methylenebis(N,N-Dimethylaniline)

>  <Rat_Male_NTP> (201)
ND

>  <Reference> (201)
NTP186

>  <Formula> (201)
C17H22N2

>  <SMILES> (201)
CN(C1=CC=C(C=C1)CC2=CC=C(C=C2)N(C)C)C

>  <Rat_Female_NTP> (201)
ND

>  <CAS> (201)
101-61-1

>  <Mouse_Female_NTP> (201)
ND

>  <Synonyms> (201)
p,p'-bis(dimethylamino)diphenylmethane; p,p'-dimethylaminodiphenylmethane; p,p'-bis(N,N-dimethylaminophenyl)methane; 4,4'-Methylene bis(N,N-dimethylaniline); 4,4'-Methylene bis(N,N-dimethylbenzenamine); 4,4'-METHYLENEBIS(N,N'-DIMETHYLANILINE); p,p'-Tetramethyldiamindiphenylmethane; 4,4'-Tetramethyldiaminodiphenylmethane; p,p[-Tetramethyldiamindiphenylmethane; Bis[p-(dimethylamino)phenyl]methane; bis(p-(N,N-dimethylamino)phenyl)methane; methane base; Methane Base Michler's Hydride; methylene base; Methylene bis(N,N'-dimethyl)aniline, 4,4'-; Michler's Base; michler's hydride; Michler's Methane; N,N,N',N'-tetramethyl-p,p'-diaminodiphenylmethane; reduced michler's ketone; Tetra-Base; tetramethyldiaminodiphenylmethane.

$$$$
202


 29 31  0  0  0  0  0  0  0  0999 V2000
    2.1959   -5.5521   -0.0018 C   0  0  0  0  0  0  0  0  0  0  0  0
    2.2303   -6.8829   -0.0028 C   0  0  0  0  0  0  0  0  0  0  0  0
    3.5222   -7.5789   -0.0035 C   0  0  0  0  0  0  0  0  0  0  0  0
    3.4432   -4.8024   -0.0014 C   0  0  0  0  0  0  0  0  0  0  0  0
    4.6067   -5.4477   -0.0006 C   0  0  0  0  0  0  0  0  0  0  0  0
    4.6502   -6.8723   -0.0021 C   0  0  0  0  0  0  0  0  0  0  0  0
    5.9345   -7.5216   -0.0008 C   0  0  0  0  0  0  0  0  0  0  0  0
    5.8240   -4.6963    0.0005 C   0  0  0  0  0  0  0  0  0  0  0  0
    7.1679   -5.3882    0.0012 C   0  0  0  0  0  0  0  0  0  0  0  0
    7.1776   -6.7329    0.0006 C   0  0  0  0  0  0  0  0  0  0  0  0
    9.5784   -6.8324   -0.0005 C   0  0  0  0  0  0  0  0  0  0  0  0
    9.6548   -5.3802    0.0019 C   0  0  0  0  0  0  0  0  0  0  0  0
    8.4195   -7.4650   -0.0001 C   0  0  0  0  0  0  0  0  0  0  0  0
    8.5219   -4.6273    0.0021 C   0  0  0  0  0  0  0  0  0  0  0  0
   11.0526   -4.8095    0.0034 C   0  0  0  0  0  0  0  0  0  0  0  0
    5.6969   -3.4818    0.0014 O   0  0  0  0  0  0  0  0  0  0  0  0
    5.9967   -8.7544   -0.0013 O   0  0  0  0  0  0  0  0  0  0  0  0
    8.5784   -3.1325    0.0017 N   0  3  0  0  0  0  0  0  0  0  0  0
    9.7129   -2.4516   -0.0024 O   0  5  0  0  0  0  0  0  0  0  0  0
    7.6196   -2.4820    0.0037 O   0  0  0  0  0  0  0  0  0  0  0  0
    1.3192   -5.0711   -0.0013 H   0  0  0  0  0  0  0  0  0  0  0  0
    1.3784   -7.4066   -0.0030 H   0  0  0  0  0  0  0  0  0  0  0  0
    3.5549   -8.5784   -0.0051 H   0  0  0  0  0  0  0  0  0  0  0  0
    3.4258   -3.8025   -0.0017 H   0  0  0  0  0  0  0  0  0  0  0  0
   10.4247   -7.3651   -0.0025 H   0  0  0  0  0  0  0  0  0  0  0  0
    8.4030   -8.4648   -0.0003 H   0  0  0  0  0  0  0  0  0  0  0  0
   11.0054   -3.8107    0.0050 H   0  0  0  0  0  0  0  0  0  0  0  0
   11.5400   -5.1184   -0.8134 H   0  0  0  0  0  0  0  0  0  0  0  0
   11.5394   -5.1211    0.8194 H   0  0  0  0  0  0  0  0  0  0  0  0
  1  2  2  0  0  0  0
  1  4  1  0  0  0  0
  2  3  1  0  0  0  0
  3  6  2  0  0  0  0
  5  4  2  0  0  0  0
  5  6  1  0  0  0  0
  5  8  1  0  0  0  0
  6  7  1  0  0  0  0
  7 10  1  0  0  0  0
  9  8  1  0  0  0  0
  9 10  2  0  0  0  0
 11 12  1  0  0  0  0
  9 14  1  0  0  0  0
 10 13  1  0  0  0  0
 13 11  2  0  0  0  0
 12 14  2  0  0  0  0
 12 15  1  0  0  0  0
  8 16  2  0  0  0  0
  7 17  2  0  0  0  0
 18 19  1  0  0  0  0
 18 20  2  0  0  0  0
 14 18  1  0  0  0  0
  1 21  1  0  0  0  0
  2 22  1  0  0  0  0
  3 23  1  0  0  0  0
  4 24  1  0  0  0  0
 11 25  1  0  0  0  0
 13 26  1  0  0  0  0
 15 27  1  0  0  0  0
 15 28  1  0  0  0  0
 15 29  1  0  0  0  0
M  END
>  <Substance ID> (202)
202

>  <Mouse_Female_Canc> (202)
3

>  <SAL> (202)
3

>  <Rat_Male_Canc> (202)
3

>  <TD50_Rat> (202)
84.8

>  <TD50_Mouse> (202)
1.56

>  <Rat_Female_Canc> (202)
3

>  <Canc> (202)
3

>  <MolWeight> (202)
267.24

>  <Mouse_Male_Canc> (202)
3

>  <Mouse_Male_NTP> (202)
ND

>  <ChemName> (202)
2-Methyl-1-nitroanthraquinone

>  <Rat_Male_NTP> (202)
ND

>  <Reference> (202)
NTP29

>  <Formula> (202)
C15H9NO4

>  <SMILES> (202)
O=C1C2=C(C(=CC=C2C(=O)C3=C1C=CC=C3)C)[N+](=O)[O-]

>  <Rat_Female_NTP> (202)
ND

>  <CAS> (202)
129-15-7

>  <Mouse_Female_NTP> (202)
ND

>  <Synonyms> (202)
1-nitro-2-methylanthraquinone; 2-methyl-1-nitro-9,10-anthracenedione.

$$$$
203


 40 41  0  0  0  0  0  0  0  0999 V2000
    5.8194  -13.0888    0.0228 C   0  0  0  0  0  0  0  0  0  0  0  0
    6.8281  -13.9675    0.0428 C   0  0  0  0  0  0  0  0  0  0  0  0
    8.4813  -12.1774   -0.0535 C   0  0  0  0  0  0  0  0  0  0  0  0
    7.3592  -11.2401   -0.0788 C   0  0  0  0  0  0  0  0  0  0  0  0
    8.2341  -13.4875    0.0038 C   0  0  0  0  0  0  0  0  0  0  0  0
    6.1048  -11.6687   -0.0415 C   0  0  0  0  0  0  0  0  0  0  0  0
    4.4774  -13.5105    0.0639 N   0  0  0  0  0  0  0  0  0  0  0  0
    9.8371  -11.5449   -0.0905 C   0  0  0  0  0  0  0  0  0  0  0  0
    3.4210  -12.5304    0.0513 C   0  0  0  0  0  0  0  0  0  0  0  0
    4.1490  -14.9053    0.1205 C   0  0  0  0  0  0  0  0  0  0  0  0
    9.8537  -10.3153   -0.1497 O   0  0  0  0  0  0  0  0  0  0  0  0
   11.1754  -12.2137   -0.0543 C   0  0  0  0  0  0  0  0  0  0  0  0
   11.3872  -13.5299    0.0058 C   0  0  0  0  0  0  0  0  0  0  0  0
   13.8118  -13.1965    0.0207 C   0  0  0  0  0  0  0  0  0  0  0  0
   13.5648  -11.7694   -0.0471 C   0  0  0  0  0  0  0  0  0  0  0  0
   12.7797  -14.0475    0.0443 C   0  0  0  0  0  0  0  0  0  0  0  0
   12.3224  -11.3071   -0.0836 C   0  0  0  0  0  0  0  0  0  0  0  0
   15.1419  -13.6542    0.0615 N   0  0  0  0  0  0  0  0  0  0  0  0
   16.2245  -12.7031    0.0436 C   0  0  0  0  0  0  0  0  0  0  0  0
   15.4326  -15.0572    0.1233 C   0  0  0  0  0  0  0  0  0  0  0  0
    6.6359  -14.9479    0.0841 H   0  0  0  0  0  0  0  0  0  0  0  0
    7.5411  -10.2579   -0.1251 H   0  0  0  0  0  0  0  0  0  0  0  0
    8.9900  -14.1421    0.0204 H   0  0  0  0  0  0  0  0  0  0  0  0
    5.3527  -11.0099   -0.0578 H   0  0  0  0  0  0  0  0  0  0  0  0
    2.5354  -12.9937    0.0848 H   0  0  0  0  0  0  0  0  0  0  0  0
    3.4805  -11.9862   -0.7855 H   0  0  0  0  0  0  0  0  0  0  0  0
    3.5129  -11.9303    0.8460 H   0  0  0  0  0  0  0  0  0  0  0  0
    3.1552  -15.0136    0.1436 H   0  0  0  0  0  0  0  0  0  0  0  0
    4.5469  -15.3088    0.9445 H   0  0  0  0  0  0  0  0  0  0  0  0
    4.5155  -15.3676   -0.6870 H   0  0  0  0  0  0  0  0  0  0  0  0
   10.6139  -14.1637    0.0247 H   0  0  0  0  0  0  0  0  0  0  0  0
   14.3344  -11.1312   -0.0664 H   0  0  0  0  0  0  0  0  0  0  0  0
   12.9455  -15.0327    0.0879 H   0  0  0  0  0  0  0  0  0  0  0  0
   12.1670  -10.3204   -0.1320 H   0  0  0  0  0  0  0  0  0  0  0  0
   17.0972  -13.1901    0.0776 H   0  0  0  0  0  0  0  0  0  0  0  0
   16.1501  -12.0977    0.8360 H   0  0  0  0  0  0  0  0  0  0  0  0
   16.1785  -12.1607   -0.7953 H   0  0  0  0  0  0  0  0  0  0  0  0
   16.4232  -15.1922    0.1453 H   0  0  0  0  0  0  0  0  0  0  0  0
   15.0524  -15.5126   -0.6818 H   0  0  0  0  0  0  0  0  0  0  0  0
   15.0252  -15.4464    0.9495 H   0  0  0  0  0  0  0  0  0  0  0  0
  1  2  2  0  0  0  0
  3  4  1  0  0  0  0
  1  6  1  0  0  0  0
  2  5  1  0  0  0  0
  5  3  2  0  0  0  0
  4  6  2  0  0  0  0
  1  7  1  0  0  0  0
  3  8  1  0  0  0  0
  7  9  1  0  0  0  0
  7 10  1  0  0  0  0
  8 11  2  0  0  0  0
  8 12  1  0  0  0  0
 12 13  2  0  0  0  0
 14 15  1  0  0  0  0
 12 17  1  0  0  0  0
 13 16  1  0  0  0  0
 16 14  2  0  0  0  0
 15 17  2  0  0  0  0
 14 18  1  0  0  0  0
 18 19  1  0  0  0  0
 18 20  1  0  0  0  0
  2 21  1  0  0  0  0
  4 22  1  0  0  0  0
  5 23  1  0  0  0  0
  6 24  1  0  0  0  0
  9 25  1  0  0  0  0
  9 26  1  0  0  0  0
  9 27  1  0  0  0  0
 10 28  1  0  0  0  0
 10 29  1  0  0  0  0
 10 30  1  0  0  0  0
 13 31  1  0  0  0  0
 15 32  1  0  0  0  0
 16 33  1  0  0  0  0
 17 34  1  0  0  0  0
 19 35  1  0  0  0  0
 19 36  1  0  0  0  0
 19 37  1  0  0  0  0
 20 38  1  0  0  0  0
 20 39  1  0  0  0  0
 20 40  1  0  0  0  0
M  END
>  <Substance ID> (203)
203

>  <Mouse_Female_Canc> (203)
3

>  <SAL> (203)
3

>  <Rat_Male_Canc> (203)
3

>  <TD50_Rat> (203)
5.64

>  <TD50_Mouse> (203)
84.1

>  <Rat_Female_Canc> (203)
3

>  <Canc> (203)
3

>  <MolWeight> (203)
268.36

>  <Mouse_Male_Canc> (203)
3

>  <Mouse_Male_NTP> (203)
ND

>  <ChemName> (203)
Michler's Ketone

>  <Rat_Male_NTP> (203)
ND

>  <Reference> (203)
NTP181

>  <Formula> (203)
C17H20N2O

>  <SMILES> (203)
O=C(C1=CC=C(C=C1)N(C)C)C2=CC=C(C=C2)N(C)C

>  <Rat_Female_NTP> (203)
ND

>  <CAS> (203)
90-94-8

>  <Mouse_Female_NTP> (203)
ND

>  <Synonyms> (203)
4,4[-Bis(dimethylamino)benzophenone; 4,4'-bis(Dimethylamino)benzophenone; p,p'-bis(N,N-dimethylamino)benzophenone; p,p'-michler's ketone; 4,4'-tetramethyldiaminobenzophenone; di-p-dimethylaminophenyl ketone; bis[4-(Dimethylamino)phenyl]-methanone; bis(p-(N,N-dimethylamino)phenyl)ketone; michler ketone; MICHLERS KETONE (TETRAMETHYLDIAMINOBENZOPHENONE); Tetramethyldiaminobenzophenone.

$$$$
204


 22 23  0  0  0  0  0  0  0  0999 V2000
    1.0794  -19.4771   -0.0002 C   0  0  0  0  0  0  0  0  0  0  0  0
    1.0809  -20.8082    0.0003 C   0  0  0  0  0  0  0  0  0  0  0  0
    2.3502  -21.5367   -0.0004 C   0  0  0  0  0  0  0  0  0  0  0  0
    2.3483  -18.7467    0.0000 C   0  0  0  0  0  0  0  0  0  0  0  0
    3.4980  -19.4174    0.0000 C   0  0  0  0  0  0  0  0  0  0  0  0
    3.4994  -20.8641   -0.0000 C   0  0  0  0  0  0  0  0  0  0  0  0
    5.9135  -20.8775   -0.0005 C   0  0  0  0  0  0  0  0  0  0  0  0
    5.9122  -19.4003    0.0001 C   0  0  0  0  0  0  0  0  0  0  0  0
    4.7728  -21.5689   -0.0005 C   0  0  0  0  0  0  0  0  0  0  0  0
    4.7711  -18.7108    0.0004 C   0  0  0  0  0  0  0  0  0  0  0  0
    4.7966  -17.3143    0.0002 N   0  0  0  0  0  0  0  0  0  0  0  0
    2.3574  -22.9327   -0.0003 N   0  0  0  0  0  0  0  0  0  0  0  0
    0.2134  -18.9771   -0.0008 H   0  0  0  0  0  0  0  0  0  0  0  0
    0.2158  -21.3098    0.0012 H   0  0  0  0  0  0  0  0  0  0  0  0
    2.3512  -17.7467    0.0002 H   0  0  0  0  0  0  0  0  0  0  0  0
    6.7850  -21.3678   -0.0009 H   0  0  0  0  0  0  0  0  0  0  0  0
    6.7830  -18.9086    0.0002 H   0  0  0  0  0  0  0  0  0  0  0  0
    4.7924  -22.5687   -0.0009 H   0  0  0  0  0  0  0  0  0  0  0  0
    5.6716  -16.8302    0.0005 H   0  0  0  0  0  0  0  0  0  0  0  0
    3.9399  -16.7986   -0.0002 H   0  0  0  0  0  0  0  0  0  0  0  0
    3.2259  -23.4283   -0.0008 H   0  0  0  0  0  0  0  0  0  0  0  0
    1.4939  -23.4371    0.0003 H   0  0  0  0  0  0  0  0  0  0  0  0
  1  2  2  0  0  0  0
  1  4  1  0  0  0  0
  2  3  1  0  0  0  0
  3  6  2  0  0  0  0
  5  4  2  0  0  0  0
  5  6  1  0  0  0  0
  7  8  1  0  0  0  0
  5 10  1  0  0  0  0
  6  9  1  0  0  0  0
  9  7  2  0  0  0  0
  8 10  2  0  0  0  0
 10 11  1  0  0  0  0
  3 12  1  0  0  0  0
  1 13  1  0  0  0  0
  2 14  1  0  0  0  0
  4 15  1  0  0  0  0
  7 16  1  0  0  0  0
  8 17  1  0  0  0  0
  9 18  1  0  0  0  0
 11 19  1  0  0  0  0
 11 20  1  0  0  0  0
 12 21  1  0  0  0  0
 12 22  1  0  0  0  0
M  END
>  <Substance ID> (204)
204

>  <Mouse_Female_Canc> (204)
3

>  <SAL> (204)
3

>  <Rat_Male_Canc> (204)
1

>  <TD50_Rat> (204)
69.6

>  <TD50_Mouse> (204)
162

>  <Rat_Female_Canc> (204)
3

>  <Canc> (204)
3

>  <MolWeight> (204)
158.20

>  <Mouse_Male_Canc> (204)
3

>  <Mouse_Male_NTP> (204)
ND

>  <ChemName> (204)
1,5-Naphthalenediamine

>  <Rat_Male_NTP> (204)
ND

>  <Reference> (204)
NTP143

>  <Formula> (204)
C10H10N2

>  <SMILES> (204)
NC1=C2C(=CC=C1)C(=CC=C2)N

>  <Rat_Female_NTP> (204)
ND

>  <CAS> (204)
2243-62-1

>  <Mouse_Female_NTP> (204)
ND

>  <Synonyms> (204)
1,5-Diaminonaphthalene.

$$$$
205


 22 22  0  0  0  0  0  0  0  0999 V2000
    6.5292  -26.8136    0.0367 S   0  0  0  0  0  0  0  0  0  0  0  0
    5.0731  -27.7713    0.0028 C   0  0  0  0  0  0  0  0  0  0  0  0
    5.3489  -29.0731   -0.0881 C   0  0  0  0  0  0  0  0  0  0  0  0
    6.7631  -29.3377   -0.1365 N   0  0  0  0  0  0  0  0  0  0  0  0
    7.4863  -28.2790   -0.0781 C   0  0  0  0  0  0  0  0  0  0  0  0
    8.8982  -28.3465   -0.1085 N   0  0  0  0  0  0  0  0  0  0  0  0
    9.7671  -27.2426   -0.0102 C   0  0  0  0  0  0  0  0  0  0  0  0
    9.3336  -26.0917    0.1251 O   0  0  0  0  0  0  0  0  0  0  0  0
   11.1487  -27.4897   -0.0605 N   0  0  0  0  0  0  0  0  0  0  0  0
   12.1122  -26.4399    0.0583 C   0  0  0  0  0  0  0  0  0  0  0  0
   13.5226  -27.0651    0.0206 C   0  0  0  0  0  0  0  0  0  0  0  0
    3.7720  -27.2589    0.0619 N   0  3  0  0  0  0  0  0  0  0  0  0
    3.5685  -25.9517    0.1292 O   0  5  0  0  0  0  0  0  0  0  0  0
    2.8529  -27.9940    0.0500 O   0  0  0  0  0  0  0  0  0  0  0  0
    4.6497  -29.7873   -0.1192 H   0  0  0  0  0  0  0  0  0  0  0  0
    9.3132  -29.2508   -0.2079 H   0  0  0  0  0  0  0  0  0  0  0  0
   11.4686  -28.4291   -0.1832 H   0  0  0  0  0  0  0  0  0  0  0  0
   12.0073  -25.7980   -0.7013 H   0  0  0  0  0  0  0  0  0  0  0  0
   11.9802  -25.9571    0.9240 H   0  0  0  0  0  0  0  0  0  0  0  0
   14.2099  -26.3434    0.1027 H   0  0  0  0  0  0  0  0  0  0  0  0
   13.6501  -27.5492   -0.8451 H   0  0  0  0  0  0  0  0  0  0  0  0
   13.6230  -27.7083    0.7797 H   0  0  0  0  0  0  0  0  0  0  0  0
  2  3  2  0  0  0  0
  1  2  1  0  0  0  0
  3  4  1  0  0  0  0
  4  5  2  0  0  0  0
  5  1  1  0  0  0  0
  5  6  1  0  0  0  0
  6  7  1  0  0  0  0
  7  8  2  0  0  0  0
  7  9  1  0  0  0  0
  9 10  1  0  0  0  0
 10 11  1  0  0  0  0
 12 13  1  0  0  0  0
 12 14  2  0  0  0  0
  2 12  1  0  0  0  0
  3 15  1  0  0  0  0
  6 16  1  0  0  0  0
  9 17  1  0  0  0  0
 10 18  1  0  0  0  0
 10 19  1  0  0  0  0
 11 20  1  0  0  0  0
 11 21  1  0  0  0  0
 11 22  1  0  0  0  0
M  END
>  <Substance ID> (205)
205

>  <Mouse_Female_Canc> (205)
2

>  <SAL> (205)
3

>  <Rat_Male_Canc> (205)
1

>  <TD50_Rat> (205)
131

>  <TD50_Mouse> (205)
758

>  <Rat_Female_Canc> (205)
3

>  <Canc> (205)
3

>  <MolWeight> (205)
216.21

>  <Mouse_Male_Canc> (205)
3

>  <Mouse_Male_NTP> (205)
ND

>  <ChemName> (205)
Nithiazide

>  <Rat_Male_NTP> (205)
ND

>  <Reference> (205)
NTP146

>  <Formula> (205)
C6H8N4O3S

>  <SMILES> (205)
O=C(Nc1ncc(s1)[N+]([O-])=O)NCC

>  <Rat_Female_NTP> (205)
ND

>  <CAS> (205)
139-94-6

>  <Mouse_Female_NTP> (205)
ND

>  <Synonyms> (205)
1-ethyl-3-(5-nitro-2-thiazolyl) urea; hepzide; hepzide 30; N-ethyl-N'-(5-nitro-2-thiazolyl)urea.

$$$$
206


 22 21  0  0  0  0  0  0  0  0999 V2000
    3.2878  -39.7056   -0.3081 C   0  0  0  0  0  0  0  0  0  0  0  0
    4.5226  -39.5218   -1.1308 C   0  0  0  0  0  0  0  0  0  0  0  0
    5.6839  -39.6989   -0.2567 N   0  0  0  0  0  0  0  0  0  0  0  0
    6.9288  -39.5921   -1.0198 C   0  0  0  0  0  0  0  0  0  0  0  0
    8.0722  -39.8291   -0.0912 C   0  0  0  0  0  0  0  0  0  0  0  0
    2.4574  -38.7991   -0.2274 O   0  0  0  0  0  0  0  0  0  0  0  0
    9.0380  -39.0658   -0.0922 O   0  0  0  0  0  0  0  0  0  0  0  0
    3.0956  -40.8936    0.3741 O   0  0  0  0  0  0  0  0  0  0  0  0
    8.0291  -40.9061    0.7772 O   0  0  0  0  0  0  0  0  0  0  0  0
    5.6552  -38.5946    0.7655 C   0  0  0  0  0  0  0  0  0  0  0  0
    5.7163  -37.1708    0.1230 C   0  0  0  0  0  0  0  0  0  0  0  0
    5.5857  -36.0665    0.9558 O   0  0  0  0  0  0  0  0  0  0  0  0
    5.8689  -36.9951   -1.0705 O   0  0  0  0  0  0  0  0  0  0  0  0
    3.8433  -41.5075    0.1816 H   0  0  0  0  0  0  0  0  0  0  0  0
    5.6413  -35.2423    0.3956 H   0  0  0  0  0  0  0  0  0  0  0  0
    7.1988  -41.4158    0.6250 H   0  0  0  0  0  0  0  0  0  0  0  0
    4.5446  -40.2007   -1.8647 H   0  0  0  0  0  0  0  0  0  0  0  0
    4.5329  -38.6031   -1.5255 H   0  0  0  0  0  0  0  0  0  0  0  0
    6.9381  -40.2770   -1.7484 H   0  0  0  0  0  0  0  0  0  0  0  0
    7.0024  -38.6784   -1.4196 H   0  0  0  0  0  0  0  0  0  0  0  0
    4.8095  -38.6704    1.2937 H   0  0  0  0  0  0  0  0  0  0  0  0
    6.4404  -38.7036    1.3752 H   0  0  0  0  0  0  0  0  0  0  0  0
  1  2  1  0  0  0  0
  2  3  1  0  0  0  0
  3  4  1  0  0  0  0
  4  5  1  0  0  0  0
  1  6  2  0  0  0  0
  5  7  2  0  0  0  0
  1  8  1  0  0  0  0
  5  9  1  0  0  0  0
  3 10  1  0  0  0  0
 10 11  1  0  0  0  0
 11 12  1  0  0  0  0
 11 13  2  0  0  0  0
  8 14  1  0  0  0  0
 12 15  1  0  0  0  0
  9 16  1  0  0  0  0
  2 17  1  0  0  0  0
  2 18  1  0  0  0  0
  4 19  1  0  0  0  0
  4 20  1  0  0  0  0
 10 21  1  0  0  0  0
 10 22  1  0  0  0  0
M  END
>  <Substance ID> (206)
206

>  <Mouse_Female_Canc> (206)
3

>  <SAL> (206)
1

>  <Rat_Male_Canc> (206)
3

>  <TD50_Rat> (206)
1760

>  <TD50_Mouse> (206)
2660

>  <Rat_Female_Canc> (206)
3

>  <Canc> (206)
3

>  <MolWeight> (206)
191.14

>  <Mouse_Male_Canc> (206)
3

>  <Mouse_Male_NTP> (206)
ND

>  <ChemName> (206)
Nitrilotriacetic acid

>  <Rat_Male_NTP> (206)
ND

>  <Reference> (206)
NTP6

>  <Formula> (206)
C6H9NO6

>  <SMILES> (206)
N(CC(=O)O)(CC(=O)O)CC(=O)O

>  <Rat_Female_NTP> (206)
ND

>  <CAS> (206)
139-13-9

>  <Mouse_Female_NTP> (206)
ND

>  <Synonyms> (206)
alpha,alpha',alpha''-trimethylaminetricarboxylic acid; aminotriacetic acid; chel 300; hampshire nta acid; nitrilo-2,2',2''-triacetic acid; N,N-bis(carboxymethyl)glycine; NTA; Complexon I; titriplex i; tri(carboxymethyl)amine; triglycine; triglycollamic acid; Trilone A; versene nta acid.

$$$$
207


 24 26  0  0  0  0  0  0  0  0999 V2000
    5.3872  -52.4273   -0.0008 C   0  0  0  0  0  0  0  0  0  0  0  0
    4.1664  -52.9528   -0.0004 C   0  0  0  0  0  0  0  0  0  0  0  0
    4.0511  -54.4344    0.0005 C   0  0  0  0  0  0  0  0  0  0  0  0
    5.1559  -55.1919    0.0005 C   0  0  0  0  0  0  0  0  0  0  0  0
    6.5038  -53.2231   -0.0003 C   0  0  0  0  0  0  0  0  0  0  0  0
    6.4754  -54.5379    0.0006 C   0  0  0  0  0  0  0  0  0  0  0  0
    7.7730  -55.2599    0.0014 C   0  0  0  0  0  0  0  0  0  0  0  0
    8.9056  -54.5387    0.0017 C   0  0  0  0  0  0  0  0  0  0  0  0
    8.8503  -53.0496    0.0007 C   0  0  0  0  0  0  0  0  0  0  0  0
    7.6525  -52.4729    0.0002 C   0  0  0  0  0  0  0  0  0  0  0  0
    5.7415  -50.9541   -0.0025 C   0  0  0  0  0  0  0  0  0  0  0  0
    7.3546  -50.9848   -0.0005 C   0  0  0  0  0  0  0  0  0  0  0  0
    7.8537  -56.6717   -0.0003 N   0  3  0  0  0  0  0  0  0  0  0  0
    6.7689  -57.4346   -0.0025 O   0  5  0  0  0  0  0  0  0  0  0  0
    8.9098  -57.1854   -0.0011 O   0  0  0  0  0  0  0  0  0  0  0  0
    3.3531  -52.3710   -0.0006 H   0  0  0  0  0  0  0  0  0  0  0  0
    3.1490  -54.8658    0.0010 H   0  0  0  0  0  0  0  0  0  0  0  0
    5.0855  -56.1894    0.0004 H   0  0  0  0  0  0  0  0  0  0  0  0
    9.7911  -55.0034    0.0027 H   0  0  0  0  0  0  0  0  0  0  0  0
    9.6869  -52.5018    0.0003 H   0  0  0  0  0  0  0  0  0  0  0  0
    5.3896  -50.4986   -0.8201 H   0  0  0  0  0  0  0  0  0  0  0  0
    5.3877  -50.4963    0.8131 H   0  0  0  0  0  0  0  0  0  0  0  0
    7.7237  -50.5417    0.8164 H   0  0  0  0  0  0  0  0  0  0  0  0
    7.7257  -50.5421   -0.8169 H   0  0  0  0  0  0  0  0  0  0  0  0
  2  3  1  0  0  0  0
  3  4  2  0  0  0  0
  4  6  1  0  0  0  0
  5  1  1  0  0  0  0
  1  2  2  0  0  0  0
  5  6  2  0  0  0  0
  6  7  1  0  0  0  0
  7  8  2  0  0  0  0
  8  9  1  0  0  0  0
  9 10  2  0  0  0  0
 10  5  1  0  0  0  0
  1 11  1  0  0  0  0
 10 12  1  0  0  0  0
 11 12  1  0  0  0  0
 13 14  1  0  0  0  0
 13 15  2  0  0  0  0
  7 13  1  0  0  0  0
  2 16  1  0  0  0  0
  3 17  1  0  0  0  0
  4 18  1  0  0  0  0
  8 19  1  0  0  0  0
  9 20  1  0  0  0  0
 11 21  1  0  0  0  0
 11 22  1  0  0  0  0
 12 23  1  0  0  0  0
 12 24  1  0  0  0  0
M  END
>  <Substance ID> (207)
207

>  <Mouse_Female_Canc> (207)
3

>  <SAL> (207)
3

>  <Rat_Male_Canc> (207)
3

>  <TD50_Rat> (207)
8.67

>  <TD50_Mouse> (207)
45.8

>  <Rat_Female_Canc> (207)
3

>  <Canc> (207)
3

>  <MolWeight> (207)
199.21

>  <Mouse_Male_Canc> (207)
1

>  <Mouse_Male_NTP> (207)
ND

>  <ChemName> (207)
5-Nitroacenaphthene

>  <Rat_Male_NTP> (207)
ND

>  <Reference> (207)
NTP118

>  <Formula> (207)
C12H9NO2

>  <SMILES> (207)
O=[N+](C1=CC=C2C3=C1C=CC=C3CC2)[O-]

>  <Rat_Female_NTP> (207)
ND

>  <CAS> (207)
602-87-9

>  <Mouse_Female_NTP> (207)
ND

>  <Synonyms> (207)
1,2-dihydro-5-nitroacenaphthylene; 5-NAN; 5-Nitroacenaphthene, 85% (Assay); 5-nitronaphthalene ethylene; Nitroacenaphthene.

$$$$
208


 28 28  0  0  0  0  0  0  0  0999 V2000
    2.2664  -63.5160   -0.0065 C   0  0  0  0  0  0  0  0  0  0  0  0
    2.2402  -64.8452   -0.0093 C   0  0  0  0  0  0  0  0  0  0  0  0
    4.6740  -64.9970    0.0035 C   0  0  0  0  0  0  0  0  0  0  0  0
    4.6388  -63.5339    0.0038 C   0  0  0  0  0  0  0  0  0  0  0  0
    3.4691  -65.6703   -0.0059 C   0  0  0  0  0  0  0  0  0  0  0  0
    3.5265  -62.8167   -0.0003 C   0  0  0  0  0  0  0  0  0  0  0  0
    3.5139  -61.3663    0.0011 N   0  0  0  0  0  0  0  0  0  0  0  0
    3.1546  -67.1084   -0.0141 O   0  0  0  0  0  0  0  0  0  0  0  0
    4.6296  -60.4136    0.0010 C   0  0  0  0  0  0  0  0  0  0  0  0
    4.1885  -68.0720   -0.0242 C   0  0  0  0  0  0  0  0  0  0  0  0
    3.5913  -69.4885   -0.0126 C   0  0  0  0  0  0  0  0  0  0  0  0
    4.3496  -59.2112    0.0041 O   0  0  0  0  0  0  0  0  0  0  0  0
    6.1067  -60.7824   -0.0041 C   0  0  0  0  0  0  0  0  0  0  0  0
    6.0649  -65.4541    0.0141 N   0  3  0  0  0  0  0  0  0  0  0  0
    6.4894  -66.6911    0.0563 O   0  5  0  0  0  0  0  0  0  0  0  0
    6.8859  -64.6091   -0.0079 O   0  0  0  0  0  0  0  0  0  0  0  0
    1.4097  -63.0003   -0.0088 H   0  0  0  0  0  0  0  0  0  0  0  0
    1.3532  -65.3069   -0.0139 H   0  0  0  0  0  0  0  0  0  0  0  0
    5.5110  -63.0448    0.0074 H   0  0  0  0  0  0  0  0  0  0  0  0
    2.6040  -60.9515    0.0023 H   0  0  0  0  0  0  0  0  0  0  0  0
    4.7426  -67.9536   -0.8482 H   0  0  0  0  0  0  0  0  0  0  0  0
    4.7630  -67.9488    0.7849 H   0  0  0  0  0  0  0  0  0  0  0  0
    4.3301  -70.1623   -0.0199 H   0  0  0  0  0  0  0  0  0  0  0  0
    3.0172  -69.6153   -0.8216 H   0  0  0  0  0  0  0  0  0  0  0  0
    3.0376  -69.6106    0.8111 H   0  0  0  0  0  0  0  0  0  0  0  0
    6.6589  -59.9487   -0.0030 H   0  0  0  0  0  0  0  0  0  0  0  0
    6.3142  -61.3181   -0.8226 H   0  0  0  0  0  0  0  0  0  0  0  0
    6.3186  -61.3230    0.8101 H   0  0  0  0  0  0  0  0  0  0  0  0
  1  2  2  0  0  0  0
  3  4  1  0  0  0  0
  1  6  1  0  0  0  0
  2  5  1  0  0  0  0
  5  3  2  0  0  0  0
  4  6  2  0  0  0  0
  6  7  1  0  0  0  0
  5  8  1  0  0  0  0
  7  9  1  0  0  0  0
  8 10  1  0  0  0  0
 10 11  1  0  0  0  0
  9 12  2  0  0  0  0
  9 13  1  0  0  0  0
 14 15  1  0  0  0  0
 14 16  2  0  0  0  0
  3 14  1  0  0  0  0
  1 17  1  0  0  0  0
  2 18  1  0  0  0  0
  4 19  1  0  0  0  0
  7 20  1  0  0  0  0
 10 21  1  0  0  0  0
 10 22  1  0  0  0  0
 11 23  1  0  0  0  0
 11 24  1  0  0  0  0
 11 25  1  0  0  0  0
 13 26  1  0  0  0  0
 13 27  1  0  0  0  0
 13 28  1  0  0  0  0
M  END
>  <Substance ID> (208)
208

>  <Mouse_Female_Canc> (208)
1

>  <SAL> (208)
3

>  <Rat_Male_Canc> (208)
1

>  <TD50_Rat> (208)
NP

>  <TD50_Mouse> (208)
2270

>  <Rat_Female_Canc> (208)
1

>  <Canc> (208)
3

>  <MolWeight> (208)
224.22

>  <Mouse_Male_Canc> (208)
3

>  <Mouse_Male_NTP> (208)
ND

>  <ChemName> (208)
3'-nitro-p-acetophenetide

>  <Rat_Male_NTP> (208)
ND

>  <Reference> (208)
NTP133

>  <Formula> (208)
C10H12N2O4

>  <SMILES> (208)
C1=CC(=CC(=C1OCC)[N+]([O-])=O)NC(=O)C

>  <Rat_Female_NTP> (208)
ND

>  <CAS> (208)
1777-84-0

>  <Mouse_Female_NTP> (208)
ND

>  <Synonyms> (208)
3'-Nitro-p-acetophenetidide; 3'-nitro-p-acetophenetidin; 4-acetamino-2-nitrophenetole; 5'-nitro-p-acetophenetidide; N-(3-nitro-4-ethoxyphenyl)acetamide; N-(4-ethoxy-3-nitrophenyl)acetamide.

$$$$
209


 17 18  0  0  0  0  0  0  0  0999 V2000
   10.4035  -73.3348   -0.0019 C   0  0  0  0  0  0  0  0  0  0  0  0
   10.5165  -74.6712   -0.0019 C   0  0  0  0  0  0  0  0  0  0  0  0
   11.8545  -75.2992   -0.0019 C   0  0  0  0  0  0  0  0  0  0  0  0
   11.6153  -72.4908   -0.0029 C   0  0  0  0  0  0  0  0  0  0  0  0
   12.7837  -73.1174   -0.0012 C   0  0  0  0  0  0  0  0  0  0  0  0
   12.9037  -74.4864   -0.0003 C   0  0  0  0  0  0  0  0  0  0  0  0
   14.2507  -74.8194    0.0019 N   0  0  0  0  0  0  0  0  0  0  0  0
   14.9278  -73.7213    0.0024 C   0  0  0  0  0  0  0  0  0  0  0  0
   14.0401  -72.5864   -0.0003 N   0  0  0  0  0  0  0  0  0  0  0  0
    9.1415  -72.7407    0.0009 N   0  3  0  0  0  0  0  0  0  0  0  0
    9.0303  -71.4209    0.0010 O   0  5  0  0  0  0  0  0  0  0  0  0
    8.1770  -73.4124    0.0052 O   0  0  0  0  0  0  0  0  0  0  0  0
    9.6958  -75.2426   -0.0019 H   0  0  0  0  0  0  0  0  0  0  0  0
   11.9644  -76.2932   -0.0030 H   0  0  0  0  0  0  0  0  0  0  0  0
   11.5572  -71.4925   -0.0047 H   0  0  0  0  0  0  0  0  0  0  0  0
   15.9263  -73.6657    0.0043 H   0  0  0  0  0  0  0  0  0  0  0  0
   14.2910  -71.6184   -0.0012 H   0  0  0  0  0  0  0  0  0  0  0  0
  1  2  2  0  0  0  0
  1  4  1  0  0  0  0
  2  3  1  0  0  0  0
  3  6  2  0  0  0  0
  5  4  2  0  0  0  0
  5  6  1  0  0  0  0
  7  8  2  0  0  0  0
  8  9  1  0  0  0  0
  9  5  1  0  0  0  0
  6  7  1  0  0  0  0
 10 11  1  0  0  0  0
 10 12  2  0  0  0  0
  1 10  1  0  0  0  0
  2 13  1  0  0  0  0
  3 14  1  0  0  0  0
  4 15  1  0  0  0  0
  8 16  1  0  0  0  0
  9 17  1  0  0  0  0
M  END
>  <Substance ID> (209)
209

>  <Mouse_Female_Canc> (209)
3

>  <SAL> (209)
3

>  <Rat_Male_Canc> (209)
1

>  <TD50_Rat> (209)
NP

>  <TD50_Mouse> (209)
372

>  <Rat_Female_Canc> (209)
1

>  <Canc> (209)
3

>  <MolWeight> (209)
163.14

>  <Mouse_Male_Canc> (209)
3

>  <Mouse_Male_NTP> (209)
ND

>  <ChemName> (209)
5-Nitrobenzimidazole

>  <Rat_Male_NTP> (209)
ND

>  <Reference> (209)
NTP117

>  <Formula> (209)
C7H5N3O2

>  <SMILES> (209)
[O-][N+](=O)c1ccc2ncnc2c1

>  <Rat_Female_NTP> (209)
ND

>  <CAS> (209)
94-52-0

>  <Mouse_Female_NTP> (209)
ND

>  <Synonyms> (209)
5(6)-nitrobenzimidazole; 5-nitro-1H-benzimidazole; 6-Nitrobenzimidazole.

$$$$
210


 20 20  0  0  0  0  0  0  0  0999 V2000
    4.2326  -81.6248   -0.0027 C   0  0  0  0  0  0  0  0  0  0  0  0
    4.2560  -82.9539    0.0012 C   0  0  0  0  0  0  0  0  0  0  0  0
    6.6685  -82.9939    0.0015 C   0  0  0  0  0  0  0  0  0  0  0  0
    6.6511  -81.5267    0.0002 C   0  0  0  0  0  0  0  0  0  0  0  0
    5.5255  -83.6725    0.0019 C   0  0  0  0  0  0  0  0  0  0  0  0
    5.4885  -80.8769   -0.0015 C   0  0  0  0  0  0  0  0  0  0  0  0
    3.0674  -83.6658    0.0017 N   0  3  0  0  0  0  0  0  0  0  0  0
    1.9064  -83.0301   -0.0050 O   0  5  0  0  0  0  0  0  0  0  0  0
    3.0906  -84.8401    0.0027 O   0  0  0  0  0  0  0  0  0  0  0  0
    7.8435  -80.8040    0.0010 O   0  0  0  0  0  0  0  0  0  0  0  0
    5.4711  -79.4812   -0.0010 N   0  0  0  0  0  0  0  0  0  0  0  0
    8.9798  -81.6841    0.0012 C   0  0  0  0  0  0  0  0  0  0  0  0
    3.3589  -81.1384   -0.0065 H   0  0  0  0  0  0  0  0  0  0  0  0
    7.5404  -83.4835    0.0022 H   0  0  0  0  0  0  0  0  0  0  0  0
    5.5359  -84.6725    0.0026 H   0  0  0  0  0  0  0  0  0  0  0  0
    6.3308  -78.9704   -0.0002 H   0  0  0  0  0  0  0  0  0  0  0  0
    4.5990  -78.9920   -0.0016 H   0  0  0  0  0  0  0  0  0  0  0  0
    9.8209  -81.1433    0.0018 H   0  0  0  0  0  0  0  0  0  0  0  0
    8.9554  -82.2608   -0.8154 H   0  0  0  0  0  0  0  0  0  0  0  0
    8.9546  -82.2614    0.8174 H   0  0  0  0  0  0  0  0  0  0  0  0
  1  2  2  0  0  0  0
  3  4  1  0  0  0  0
  1  6  1  0  0  0  0
  2  5  1  0  0  0  0
  5  3  2  0  0  0  0
  4  6  2  0  0  0  0
  7  8  1  0  0  0  0
  7  9  2  0  0  0  0
  2  7  1  0  0  0  0
  4 10  1  0  0  0  0
  6 11  1  0  0  0  0
 10 12  1  0  0  0  0
  1 13  1  0  0  0  0
  3 14  1  0  0  0  0
  5 15  1  0  0  0  0
 11 16  1  0  0  0  0
 11 17  1  0  0  0  0
 12 18  1  0  0  0  0
 12 19  1  0  0  0  0
 12 20  1  0  0  0  0
M  END
>  <Substance ID> (210)
210

>  <Mouse_Female_Canc> (210)
3

>  <SAL> (210)
3

>  <Rat_Male_Canc> (210)
3

>  <TD50_Rat> (210)
53.9

>  <TD50_Mouse> (210)
3720

>  <Rat_Female_Canc> (210)
3

>  <Canc> (210)
3

>  <MolWeight> (210)
168.15

>  <Mouse_Male_Canc> (210)
2

>  <Mouse_Male_NTP> (210)
ND

>  <ChemName> (210)
5-Nitro-ortho-anisidine

>  <Rat_Male_NTP> (210)
ND

>  <Reference> (210)
NTP127

>  <Formula> (210)
C7H8N2O3

>  <SMILES> (210)
O=[N+](C1=CC(=C(C=C1)OC)N)[O-]

>  <Rat_Female_NTP> (210)
ND

>  <CAS> (210)
99-59-2

>  <Mouse_Female_NTP> (210)
ND

>  <Synonyms> (210)
2-amino-1-methoxy-4-nitrobenzene; 2-Amino-4-Nitroanisole; 2-methoxy-5-nitrobenzamine; 2-Methoxy-5-nitroaniline; 3-amino-4-methoxynitrobenzene; 3-nitro-6-methoxyaniline; 4-Nitro-2-amino-anisole; 5-nitro-2-methoxyaniline; 5-NITRO-ortho-ANISIDINE (1-METHOXY-5-NITROANILINE; azoamine scarlet; Azoamine Scarlet K; azogene ecarlate r; azoic diazo component 13, base; C.I. 37130; C.I. azoic diazo component 13; fast scarlet r; Fast Scarlet R base.

$$$$
211


 18 18  0  0  0  0  0  0  0  0999 V2000
    2.4402  -90.6422   -0.0021 C   0  0  0  0  0  0  0  0  0  0  0  0
    2.4381  -91.9739   -0.0045 C   0  0  0  0  0  0  0  0  0  0  0  0
    4.8607  -92.0383    0.0004 C   0  0  0  0  0  0  0  0  0  0  0  0
    4.8634  -90.5710    0.0007 C   0  0  0  0  0  0  0  0  0  0  0  0
    3.7070  -92.7036   -0.0005 C   0  0  0  0  0  0  0  0  0  0  0  0
    3.7050  -89.9062    0.0005 C   0  0  0  0  0  0  0  0  0  0  0  0
    3.6811  -88.5089    0.0012 N   0  0  0  0  0  0  0  0  0  0  0  0
    3.7066  -94.0973    0.0025 N   0  0  0  0  0  0  0  0  0  0  0  0
    6.0837  -89.8818    0.0013 N   0  3  0  0  0  0  0  0  0  0  0  0
    7.2207  -90.5558    0.0002 O   0  5  0  0  0  0  0  0  0  0  0  0
    6.1068  -88.7076    0.0013 O   0  0  0  0  0  0  0  0  0  0  0  0
    1.5737  -90.1430   -0.0022 H   0  0  0  0  0  0  0  0  0  0  0  0
    1.5722  -92.4740   -0.0089 H   0  0  0  0  0  0  0  0  0  0  0  0
    5.7262  -92.5393    0.0009 H   0  0  0  0  0  0  0  0  0  0  0  0
    4.5385  -87.9942    0.0030 H   0  0  0  0  0  0  0  0  0  0  0  0
    2.8067  -88.0238   -0.0002 H   0  0  0  0  0  0  0  0  0  0  0  0
    4.5725  -94.5976    0.0052 H   0  0  0  0  0  0  0  0  0  0  0  0
    2.8405  -94.5971    0.0019 H   0  0  0  0  0  0  0  0  0  0  0  0
  1  2  2  0  0  0  0
  3  4  1  0  0  0  0
  1  6  1  0  0  0  0
  2  5  1  0  0  0  0
  5  3  2  0  0  0  0
  4  6  2  0  0  0  0
  6  7  1  0  0  0  0
  5  8  1  0  0  0  0
  9 10  1  0  0  0  0
  9 11  2  0  0  0  0
  4  9  1  0  0  0  0
  1 12  1  0  0  0  0
  2 13  1  0  0  0  0
  3 14  1  0  0  0  0
  7 15  1  0  0  0  0
  7 16  1  0  0  0  0
  8 17  1  0  0  0  0
  8 18  1  0  0  0  0
M  END
>  <Substance ID> (211)
211

>  <Mouse_Female_Canc> (211)
3

>  <SAL> (211)
3

>  <Rat_Male_Canc> (211)
1

>  <TD50_Rat> (211)
NP

>  <TD50_Mouse> (211)
614

>  <Rat_Female_Canc> (211)
1

>  <Canc> (211)
3

>  <MolWeight> (211)
153.14

>  <Mouse_Male_Canc> (211)
1

>  <Mouse_Male_NTP> (211)
ND

>  <ChemName> (211)
2-nitro-1,4-phenylenediamine

>  <Rat_Male_NTP> (211)
ND

>  <Reference> (211)
NTP169

>  <Formula> (211)
C6H7N3O2

>  <SMILES> (211)
NC1=C(C=C(C=C1)N)[N+](=O)[O-]

>  <Rat_Female_NTP> (211)
ND

>  <CAS> (211)
5307-14-2

>  <Mouse_Female_NTP> (211)
ND

>  <Synonyms> (211)
1,4-Diamino-2-nitrobenzene; 2-n-p-pda; 2-NDB; 2-nitro-1,4-Benzenediamine; 2-nitro-1,4-diaminobenzene; o-Nitro-p-phenylenediamine; 2-NPPD; 4-Amino-2-nitroaniline; C.I. 76070; C.I. oxidation base 22; durafur brown; durafur brown 2R; Dye gs; fouramine 2R; fourrine 36; fourrine brown 2R; nitro-p-phenylenediamine; oxidation base 22; ursol brown rr; zoba brown rr.

$$$$
212


 25 26  0  0  0  0  0  0  0  0999 V2000
   27.0052   -2.0008    0.2276 C   0  0  0  0  0  0  0  0  0  0  0  0
   27.0924   -3.2998   -0.0477 C   0  0  0  0  0  0  0  0  0  0  0  0
   29.5228   -3.2090   -0.1219 C   0  0  0  0  0  0  0  0  0  0  0  0
   29.4151   -1.7673    0.1813 C   0  0  0  0  0  0  0  0  0  0  0  0
   28.4043   -3.9251   -0.2286 C   0  0  0  0  0  0  0  0  0  0  0  0
   28.2214   -1.1989    0.3461 C   0  0  0  0  0  0  0  0  0  0  0  0
   30.7715   -3.9033   -0.3006 N   0  0  0  0  0  0  0  0  0  0  0  0
   32.1189   -3.4062   -0.1967 C   0  0  0  0  0  0  0  0  0  0  0  0
   33.1051   -4.2924   -0.3215 C   0  0  0  0  0  0  0  0  0  0  0  0
   34.8060   -2.6041    0.0143 C   0  0  0  0  0  0  0  0  0  0  0  0
   33.7390   -1.6134    0.1465 C   0  0  0  0  0  0  0  0  0  0  0  0
   34.5031   -3.8799   -0.2120 C   0  0  0  0  0  0  0  0  0  0  0  0
   32.4645   -1.9890    0.0471 C   0  0  0  0  0  0  0  0  0  0  0  0
   36.1413   -2.2176    0.1270 N   0  0  0  0  0  0  0  0  0  0  0  0
   36.4112   -1.0931    0.3375 O   0  0  0  0  0  0  0  0  0  0  0  0
   26.1095   -1.5742    0.3530 H   0  0  0  0  0  0  0  0  0  0  0  0
   26.2613   -3.8496   -0.1311 H   0  0  0  0  0  0  0  0  0  0  0  0
   30.2440   -1.2139    0.2635 H   0  0  0  0  0  0  0  0  0  0  0  0
   28.4613   -4.9020   -0.4347 H   0  0  0  0  0  0  0  0  0  0  0  0
   28.1575   -0.2222    0.5512 H   0  0  0  0  0  0  0  0  0  0  0  0
   30.6912   -4.8732   -0.5307 H   0  0  0  0  0  0  0  0  0  0  0  0
   32.8862   -5.2530   -0.4926 H   0  0  0  0  0  0  0  0  0  0  0  0
   33.9658   -0.6536    0.3115 H   0  0  0  0  0  0  0  0  0  0  0  0
   35.2327   -4.5572   -0.3073 H   0  0  0  0  0  0  0  0  0  0  0  0
   31.7373   -1.3086    0.1380 H   0  0  0  0  0  0  0  0  0  0  0  0
  1  2  2  0  0  0  0
  3  4  1  0  0  0  0
  1  6  1  0  0  0  0
  2  5  1  0  0  0  0
  5  3  2  0  0  0  0
  4  6  2  0  0  0  0
  3  7  1  0  0  0  0
  7  8  1  0  0  0  0
  8  9  2  0  0  0  0
 10 11  1  0  0  0  0
  8 13  1  0  0  0  0
  9 12  1  0  0  0  0
 12 10  2  0  0  0  0
 11 13  2  0  0  0  0
 10 14  1  0  0  0  0
 14 15  2  0  0  0  0
  1 16  1  0  0  0  0
  2 17  1  0  0  0  0
  4 18  1  0  0  0  0
  5 19  1  0  0  0  0
  6 20  1  0  0  0  0
  7 21  1  0  0  0  0
  9 22  1  0  0  0  0
 11 23  1  0  0  0  0
 12 24  1  0  0  0  0
 13 25  1  0  0  0  0
M  END
>  <Substance ID> (212)
212

>  <Mouse_Female_Canc> (212)
1

>  <SAL> (212)
3

>  <Rat_Male_Canc> (212)
3

>  <TD50_Rat> (212)
201

>  <TD50_Mouse> (212)
340

>  <Rat_Female_Canc> (212)
1

>  <Canc> (212)
3

>  <MolWeight> (212)
198.22

>  <Mouse_Male_Canc> (212)
3

>  <Mouse_Male_NTP> (212)
ND

>  <ChemName> (212)
4-Nitrosodiphenylamine

>  <Rat_Male_NTP> (212)
ND

>  <Reference> (212)
NTP190

>  <Formula> (212)
C12H10N2O

>  <SMILES> (212)
O=Nc2ccc(Nc1ccccc1)cc2

>  <Rat_Female_NTP> (212)
ND

>  <CAS> (212)
156-10-5

>  <Mouse_Female_NTP> (212)
ND

>  <Synonyms> (212)
4-Nitroso-N-Phenylbenzenamine; naugard tkb; N-Nitrosodiphenyl-2,2',4,4',6,6'-d6-amine; N-Phenyl-p-Nitrosoaniline; phenyl 4-nitrosophenyl amine; TKB.

$$$$
213


 19 19  0  0  0  0  0  0  0  0999 V2000
   37.4132  -12.3775    0.0006 C   0  0  0  0  0  0  0  0  0  0  0  0
   37.4292  -13.7090    0.0004 C   0  0  0  0  0  0  0  0  0  0  0  0
   39.8500  -13.7471    0.0003 C   0  0  0  0  0  0  0  0  0  0  0  0
   39.8330  -12.2838    0.0003 C   0  0  0  0  0  0  0  0  0  0  0  0
   38.7047  -14.4254   -0.0003 C   0  0  0  0  0  0  0  0  0  0  0  0
   38.6728  -11.6308    0.0007 C   0  0  0  0  0  0  0  0  0  0  0  0
   38.6560  -10.2357   -0.0004 N   0  0  0  0  0  0  0  0  0  0  0  0
   41.1236  -11.5182   -0.0004 C   0  0  0  0  0  0  0  0  0  0  0  0
   36.2289  -14.4214    0.0005 N   0  3  0  0  0  0  0  0  0  0  0  0
   35.0728  -13.7736   -0.0004 O   0  5  0  0  0  0  0  0  0  0  0  0
   36.2427  -15.5966   -0.0004 O   0  0  0  0  0  0  0  0  0  0  0  0
   36.5413  -11.8878    0.0007 H   0  0  0  0  0  0  0  0  0  0  0  0
   40.7216  -14.2372    0.0007 H   0  0  0  0  0  0  0  0  0  0  0  0
   38.7162  -15.4253   -0.0013 H   0  0  0  0  0  0  0  0  0  0  0  0
   39.5159   -9.7253   -0.0003 H   0  0  0  0  0  0  0  0  0  0  0  0
   37.7840   -9.7462   -0.0013 H   0  0  0  0  0  0  0  0  0  0  0  0
   40.9298  -10.5372   -0.0003 H   0  0  0  0  0  0  0  0  0  0  0  0
   41.6506  -11.7533   -0.8171 H   0  0  0  0  0  0  0  0  0  0  0  0
   41.6516  -11.7533    0.8157 H   0  0  0  0  0  0  0  0  0  0  0  0
  1  2  2  0  0  0  0
  3  4  1  0  0  0  0
  1  6  1  0  0  0  0
  2  5  1  0  0  0  0
  5  3  2  0  0  0  0
  4  6  2  0  0  0  0
  6  7  1  0  0  0  0
  4  8  1  0  0  0  0
  9 10  1  0  0  0  0
  9 11  2  0  0  0  0
  2  9  1  0  0  0  0
  1 12  1  0  0  0  0
  3 13  1  0  0  0  0
  5 14  1  0  0  0  0
  7 15  1  0  0  0  0
  7 16  1  0  0  0  0
  8 17  1  0  0  0  0
  8 18  1  0  0  0  0
  8 19  1  0  0  0  0
M  END
>  <Substance ID> (213)
213

>  <Mouse_Female_Canc> (213)
3

>  <SAL> (213)
3

>  <Rat_Male_Canc> (213)
1

>  <TD50_Rat> (213)
NP

>  <TD50_Mouse> (213)
277

>  <Rat_Female_Canc> (213)
1

>  <Canc> (213)
3

>  <MolWeight> (213)
152.15

>  <Mouse_Male_Canc> (213)
3

>  <Mouse_Male_NTP> (213)
ND

>  <ChemName> (213)
5-Nitro-ortho-toluidine

>  <Rat_Male_NTP> (213)
ND

>  <Reference> (213)
NTP107

>  <Formula> (213)
C7H8N2O2

>  <SMILES> (213)
O=[N+](C1=CC(=C(C=C1)C)N)[O-]

>  <Rat_Female_NTP> (213)
ND

>  <CAS> (213)
99-55-8

>  <Mouse_Female_NTP> (213)
ND

>  <Synonyms> (213)
1-amino-2-methyl-5-nitrobenzene; 2-Amino-4-nitrotoluene; fast scarlet g; fast scarlet g base; fast scarlet gc base; fast scarlet j salt; fast scarlet mN4t base; fast scarlet t base; hiltonil fast scarlet g salt; hiltonil fast scarlet g base; hiltonil fast scarlet gc base; kayaku scarlet g base; lake scarlet g base; lithosol orange r base; mitsui scarlet g base; naphthanil scarlet g base; naphtoelan fast scarlet g salt; naphtoelan fast scarlet g base; PNOT; scarlet base ciba ii; scarlet base irga ii; scarlet base nsp; scarlet g base; sugai fast scarlet g base; symulon scarlet g base; 2-methyl-5-nitrobenzenamine; 2-Methyl-5-nitroaniline; 4-nitro-2-aminotoluene; 5-NITRO-ortho-TOLUIDINE (2-METHYL-5-NITROANILINE); amarthol fast scarlet g salt; amarthol fast scarlet g base; azoene fast scarlet gc salt; azoene fast scarlet gc base; azofix scarlet g salt; azogene fast scarlet g; diabase scarlet g; diazo fast scarlet g; C.I. 37105; C.I. azoic diazo component 12; C.I. Azoic Diazo Component No. 12; dainichi fast scarlet g base; daito scarlet base g; devol scarlet b; devol scarlet g salt; Fast Red G Base; fast red sg base; fast scarlet base g; fast scarlet base j.

$$$$
214


 32 32  0  0  0  0  0  0  0  0999 V2000
   38.7576  -20.8735    0.4464 C   0  0  0  0  0  0  0  0  0  0  0  0
   39.6549  -21.5122    1.1928 C   0  0  0  0  0  0  0  0  0  0  0  0
   41.4853  -20.5147   -0.0091 C   0  0  0  0  0  0  0  0  0  0  0  0
   40.5183  -19.8166   -0.8448 C   0  0  0  0  0  0  0  0  0  0  0  0
   41.0749  -21.3314    0.9546 C   0  0  0  0  0  0  0  0  0  0  0  0
   39.2202  -19.9949   -0.6349 C   0  0  0  0  0  0  0  0  0  0  0  0
   37.3851  -21.0881    0.7542 O   0  0  0  0  0  0  0  0  0  0  0  0
   36.2800  -20.3927   -0.0732 P   0  0  0  0  0  0  0  0  0  0  0  0
   36.6953  -19.0916   -0.7580 O   0  0  0  0  0  0  0  0  0  0  0  0
   35.9694  -21.4190   -1.1598 O   0  0  0  0  0  0  0  0  0  0  0  0
   35.0206  -20.3007    1.0192 S   0  0  0  0  0  0  0  0  0  0  0  0
   35.6194  -22.7180   -0.6232 C   0  0  0  0  0  0  0  0  0  0  0  0
   36.8351  -23.6790   -0.7007 C   0  0  0  0  0  0  0  0  0  0  0  0
   36.2452  -17.9136   -0.0493 C   0  0  0  0  0  0  0  0  0  0  0  0
   37.0917  -17.6879    1.2253 C   0  0  0  0  0  0  0  0  0  0  0  0
   42.8361  -20.3305   -0.2168 N   0  3  0  0  0  0  0  0  0  0  0  0
   43.7072  -21.0206    0.4955 O   0  5  0  0  0  0  0  0  0  0  0  0
   43.2036  -19.5603   -1.0227 O   0  0  0  0  0  0  0  0  0  0  0  0
   39.3483  -22.1218    1.9238 H   0  0  0  0  0  0  0  0  0  0  0  0
   40.8308  -19.2062   -1.5727 H   0  0  0  0  0  0  0  0  0  0  0  0
   41.7431  -21.8208    1.5150 H   0  0  0  0  0  0  0  0  0  0  0  0
   38.5537  -19.5284   -1.2164 H   0  0  0  0  0  0  0  0  0  0  0  0
   35.3402  -22.6159    0.3316 H   0  0  0  0  0  0  0  0  0  0  0  0
   34.8625  -23.1005   -1.1532 H   0  0  0  0  0  0  0  0  0  0  0  0
   36.5798  -24.5709   -0.3275 H   0  0  0  0  0  0  0  0  0  0  0  0
   37.5937  -23.3009   -0.1701 H   0  0  0  0  0  0  0  0  0  0  0  0
   37.1162  -23.7853   -1.6545 H   0  0  0  0  0  0  0  0  0  0  0  0
   36.3331  -17.1169   -0.6473 H   0  0  0  0  0  0  0  0  0  0  0  0
   35.2866  -18.0323    0.2098 H   0  0  0  0  0  0  0  0  0  0  0  0
   36.7668  -16.8708    1.7014 H   0  0  0  0  0  0  0  0  0  0  0  0
   38.0512  -17.5658    0.9714 H   0  0  0  0  0  0  0  0  0  0  0  0
   37.0051  -18.4810    1.8282 H   0  0  0  0  0  0  0  0  0  0  0  0
  1  2  2  0  0  0  0
  3  4  1  0  0  0  0
  1  6  1  0  0  0  0
  2  5  1  0  0  0  0
  5  3  2  0  0  0  0
  4  6  2  0  0  0  0
  1  7  1  0  0  0  0
  7  8  1  0  0  0  0
  8  9  1  0  0  0  0
  8 10  1  0  0  0  0
  8 11  2  0  0  0  0
 10 12  1  0  0  0  0
 12 13  1  0  0  0  0
  9 14  1  0  0  0  0
 14 15  1  0  0  0  0
 16 17  1  0  0  0  0
 16 18  2  0  0  0  0
  3 16  1  0  0  0  0
  2 19  1  0  0  0  0
  4 20  1  0  0  0  0
  5 21  1  0  0  0  0
  6 22  1  0  0  0  0
 12 23  1  0  0  0  0
 12 24  1  0  0  0  0
 13 25  1  0  0  0  0
 13 26  1  0  0  0  0
 13 27  1  0  0  0  0
 14 28  1  0  0  0  0
 14 29  1  0  0  0  0
 15 30  1  0  0  0  0
 15 31  1  0  0  0  0
 15 32  1  0  0  0  0
M  END
>  <Substance ID> (214)
214

>  <Mouse_Female_Canc> (214)
1

>  <SAL> (214)
3

>  <Rat_Male_Canc> (214)
2

>  <TD50_Rat> (214)
NP

>  <TD50_Mouse> (214)
NP

>  <Rat_Female_Canc> (214)
2

>  <Canc> (214)
2

>  <MolWeight> (214)
291.26

>  <Mouse_Male_Canc> (214)
1

>  <Mouse_Male_NTP> (214)
ND

>  <ChemName> (214)
Parathion

>  <Rat_Male_NTP> (214)
ND

>  <Reference> (214)
NTP70

>  <Formula> (214)
C10H14NO5PS

>  <SMILES> (214)
S=P(OC1=CC=C(C=C1)[N+](=O)[O-])(OCC)OCC

>  <Rat_Female_NTP> (214)
ND

>  <CAS> (214)
56-38-2

>  <Mouse_Female_NTP> (214)
ND

>  <Synonyms> (214)
O,O-diethyl-O-(p-nitrophenyl)thionophosphate; O,O-diethyl-O-p-nitrophenylthiophosphate; bayer e-605; Diethyl O-p-nitrophenyl phosphorothioate; diethyl para-nitrophenol thiophosphate; diethyl p-nitrophenyl monothiophosphate; diethyl 4-nitrophenyl phosphorothionate; diethyl p-nitrophenyl thionophosphate; diethyl p-nitrophenyl thiophosphate; diethylparathion; Bladan; bladan f; Bladen; compound 3422; corothion; corthione; danthion; deoxynucleoside 5'-triphosphate; DNTP; drexel parathion 8E; Durathion; E 605; E 605 F; e 605 forte; ecatox; ekatin wf & wf ulv; ekatox; ethlon; ethyl parathion; Etilon; Foliclal; Folidol; folidol e & e 605; folidol e605; folidol oil; fosfermo; Fosferno; Fosferno 50; fosfex; fosfive; fosova; fostern; Fostox; gearphos; genithion; kolphos; kypthion; lethalaire g-54; lirothion; murfos; Niran; nitrostygmine; niuif-100; nourithion; oleoparaphene; oleoparathion; oleofos 20; OMS 19; PAC; Pacol; panthion; parthion; penncap e; pestox plus; pethion; Phoskil; phosphemol; phosphenol; Phosphorothioic acid O,O-diethyl-O-(4-nitrophenyl) ester; phosphostigmine; RB; rhodiasol; Rhodiatox; rhodiatrox; selephos; sixty-three special e.c.; SNP; soprathion; stathion; strathion; sulfos; super rodiatox; T-47; thiomex; Thionspray No.84; thiophos 3422; tiofos; TOX 47; vapophos; Viran; vitrex; O,O-diethyl O-p-nitrophenyl phosphorothioate; Orthophos; Paradust; Paramar; paramar 50; p-nitrophenol O-ester with O,O-diethylphosphorothioate; Paraphos; parathene; Parathion-E; Parawet; AAT; AATP; ac 3422; acc 3422; alkron; Alleron; american cyanamid 3422; Aphamite; Aqua 9-Parathion; Aralo; B 404; bay e-605.

$$$$
215


 27 28  0  0  0  0  0  0  0  0999 V2000
   28.0067  -28.4732    0.0064 C   0  0  0  0  0  0  0  0  0  0  0  0
   28.5075  -29.7069    0.0025 C   0  0  0  0  0  0  0  0  0  0  0  0
   30.7807  -28.8611   -0.0062 C   0  0  0  0  0  0  0  0  0  0  0  0
   30.2284  -27.5023   -0.0030 C   0  0  0  0  0  0  0  0  0  0  0  0
   29.9587  -29.9094   -0.0044 C   0  0  0  0  0  0  0  0  0  0  0  0
   28.9081  -27.3190    0.0030 C   0  0  0  0  0  0  0  0  0  0  0  0
   32.1724  -29.0648   -0.0080 N   0  0  0  0  0  0  0  0  0  0  0  0
   32.9352  -28.1236    0.0012 N   0  0  0  0  0  0  0  0  0  0  0  0
   34.3261  -28.3364    0.0029 C   0  0  0  0  0  0  0  0  0  0  0  0
   34.8206  -29.5702    0.0010 C   0  0  0  0  0  0  0  0  0  0  0  0
   37.0597  -28.6740   -0.0025 C   0  0  0  0  0  0  0  0  0  0  0  0
   36.5069  -27.3812    0.0021 N   0  0  0  0  0  0  0  0  0  0  0  0
   36.2684  -29.7459   -0.0020 C   0  0  0  0  0  0  0  0  0  0  0  0
   35.2458  -27.1963    0.0055 C   0  0  0  0  0  0  0  0  0  0  0  0
   38.4486  -28.8340   -0.0081 N   0  0  0  0  0  0  0  0  0  0  0  0
   34.7369  -25.8981    0.0100 N   0  0  0  0  0  0  0  0  0  0  0  0
   27.0163  -28.3349    0.0116 H   0  0  0  0  0  0  0  0  0  0  0  0
   27.8929  -30.4957    0.0043 H   0  0  0  0  0  0  0  0  0  0  0  0
   30.8426  -26.7131   -0.0053 H   0  0  0  0  0  0  0  0  0  0  0  0
   30.3329  -30.8367   -0.0078 H   0  0  0  0  0  0  0  0  0  0  0  0
   28.5327  -26.3922    0.0052 H   0  0  0  0  0  0  0  0  0  0  0  0
   34.2113  -30.3632    0.0017 H   0  0  0  0  0  0  0  0  0  0  0  0
   36.6643  -30.6642   -0.0038 H   0  0  0  0  0  0  0  0  0  0  0  0
   38.8461  -29.7516   -0.0114 H   0  0  0  0  0  0  0  0  0  0  0  0
   39.0444  -28.0310   -0.0088 H   0  0  0  0  0  0  0  0  0  0  0  0
   35.3607  -25.1165    0.0118 H   0  0  0  0  0  0  0  0  0  0  0  0
   33.7482  -25.7487    0.0114 H   0  0  0  0  0  0  0  0  0  0  0  0
  1  2  2  0  0  0  0
  3  4  1  0  0  0  0
  1  6  1  0  0  0  0
  2  5  1  0  0  0  0
  5  3  2  0  0  0  0
  4  6  2  0  0  0  0
  3  7  1  0  0  0  0
  7  8  2  0  0  0  0
  8  9  1  0  0  0  0
  9 10  2  0  0  0  0
 11 12  1  0  0  0  0
  9 14  1  0  0  0  0
 10 13  1  0  0  0  0
 13 11  2  0  0  0  0
 12 14  2  0  0  0  0
 11 15  1  0  0  0  0
 14 16  1  0  0  0  0
  1 17  1  0  0  0  0
  2 18  1  0  0  0  0
  4 19  1  0  0  0  0
  5 20  1  0  0  0  0
  6 21  1  0  0  0  0
 10 22  1  0  0  0  0
 13 23  1  0  0  0  0
 15 24  1  0  0  0  0
 15 25  1  0  0  0  0
 16 26  1  0  0  0  0
 16 27  1  0  0  0  0
M  END
>  <Substance ID> (215)
215

>  <Mouse_Female_Canc> (215)
3

>  <SAL> (215)
1

>  <Rat_Male_Canc> (215)
3

>  <TD50_Rat> (215)
303

>  <TD50_Mouse> (215)
71.1

>  <Rat_Female_Canc> (215)
3

>  <Canc> (215)
3

>  <MolWeight> (215)
249.74

>  <Mouse_Male_Canc> (215)
1

>  <Mouse_Male_NTP> (215)
ND

>  <ChemName> (215)
Phenazopyridine Hydrochloride

>  <Rat_Male_NTP> (215)
ND

>  <Reference> (215)
NTP99

>  <Formula> (215)
C11H11N5.HCl

>  <SMILES> (215)
N(=N/c1ccc(nc1N)N)\c2ccccc2.Cl

>  <Rat_Female_NTP> (215)
ND

>  <CAS> (215)
136-40-3

>  <Mouse_Female_NTP> (215)
ND

>  <Synonyms> (215)
2,6-diamino-3-phenylazopyridine hydrochloride; 2,6-diamino-3-(phenylazo)pyridine monohydrochloride; mallophene; NC 150; nefrecil; PDP; phenazo; phenazodine; phenazopyridinium chloride; phenylazo; phenylazo-alpha,alpha'-diaminopyridine monohydrochloride; phenylazodiaminopyridine hydrochloride; phenyl-idium; phenyl-idium 200; Pirid; pyrazodine; pyrazofen; pyredal; pyridiate; pyridivite; pyridacil; pyridene; pyridenal; pyripyridium; pyrizin; sedural; suladyne; sulodyne; thiosulfil-a forte; urazium; uridinal; uriplex; urodine; urobiotic-250; urofeen; uromide; urophenyl; uropyrine; uropyridin; utostan; vestin; W 6155; 3-phenylazo-2,6-diaminopyridine hydrochloride; 3-(phenylazo)-2,6-pyridinediamine hydrochloride; 3-(phenylazo)-2,6-pyridinediamine monohydrochloride; azodine; azodium; azodyne; azo gantrisin; azo gastanol; azo-mandelamine; azomine; azo-standard; azo-stat; azotrex; baridium; Di-azo; diridone; bisteril; beta-phenylazo-alpha,alpha'-diaminopyridine hydrochloride; cystamine 'mcclung'; cystopyrin; cystural; eucistin; giracid; mallofeen.

$$$$
216


103107  0  0  0  0  0  0  0  0999 V2000
   51.8916  -35.0528   -0.9508 C   0  0  0  0  0  0  0  0  0  0  0  0
   50.6207  -34.6875   -0.1831 C   0  0  0  0  0  0  0  0  0  0  0  0
   49.3031  -35.3340   -0.7207 C   0  0  0  0  0  0  0  0  0  0  0  0
   48.3403  -34.8973    0.3688 C   0  0  0  0  0  0  0  0  0  0  0  0
   46.8048  -35.1212    0.3057 C   0  0  1  0  0  0  0  0  0  0  0  0
   53.0706  -34.2861   -0.3068 C   0  0  0  0  0  0  0  0  0  0  0  0
   38.2063  -40.4773   -0.3512 C   0  0  2  0  0  0  0  0  0  0  0  0
   39.4355  -41.1782    0.3475 C   0  0  0  0  0  0  0  0  0  0  0  0
   39.6421  -38.4493   -0.7734 C   0  0  0  0  0  0  0  0  0  0  0  0
   38.2946  -38.9587   -0.1112 C   0  0  0  0  0  0  0  0  0  0  0  0
   30.1585  -41.0735    0.0506 C   0  0  0  0  0  0  0  0  0  0  0  0
   30.7153  -42.1946    0.4727 C   0  0  0  0  0  0  0  0  0  0  0  0
   32.9881  -41.3109    0.2711 C   0  0  0  0  0  0  0  0  0  0  0  0
   32.3920  -40.0396   -0.2215 C   0  0  0  0  0  0  0  0  0  0  0  0
   32.1686  -42.3162    0.5927 C   0  0  0  0  0  0  0  0  0  0  0  0
   31.0488  -39.9220   -0.3222 C   0  0  0  0  0  0  0  0  0  0  0  0
   28.7142  -40.9990   -0.0262 N   0  0  0  0  0  0  0  0  0  0  0  0
   28.0366  -39.7749   -0.4551 C   0  0  0  0  0  0  0  0  0  0  0  0
   27.9310  -42.1895    0.3720 C   0  0  0  0  0  0  0  0  0  0  0  0
   26.8207  -39.4417    0.4811 C   0  0  0  0  0  0  0  0  0  0  0  0
   25.8931  -38.0842   -0.1600 Cl  0  0  0  0  0  0  0  0  0  0  0  0
   26.8436  -42.5930   -0.6829 C   0  0  0  0  0  0  0  0  0  0  0  0
   25.8804  -43.9394   -0.0600 Cl  0  0  0  0  0  0  0  0  0  0  0  0
   34.5127  -41.5819    0.4874 C   0  0  0  0  0  0  0  0  0  0  0  0
   35.6497  -40.7279   -0.1417 C   0  0  0  0  0  0  0  0  0  0  0  0
   35.4222  -39.7977   -0.9229 O   0  0  0  0  0  0  0  0  0  0  0  0
   36.9982  -41.1282    0.2274 O   0  0  0  0  0  0  0  0  0  0  0  0
   40.8702  -39.0090    0.0030 C   0  0  1  0  0  0  0  0  0  0  0  0
   40.8008  -40.5154    0.1180 C   0  0  0  0  0  0  0  0  0  0  0  0
   41.9205  -41.2593    0.1960 C   0  0  0  0  0  0  0  0  0  0  0  0
   43.3472  -40.6787    0.0939 C   0  0  0  0  0  0  0  0  0  0  0  0
   42.3003  -38.5013   -0.5287 C   0  0  2  0  0  0  0  0  0  0  0  0
   43.3787  -39.1507    0.3732 C   0  0  1  0  0  0  0  0  0  0  0  0
   43.7773  -36.3726   -0.6881 C   0  0  0  0  0  0  0  0  0  0  0  0
   42.3427  -36.9408   -0.3820 C   0  0  0  0  0  0  0  0  0  0  0  0
   44.7499  -37.0073    0.3417 C   0  0  1  0  0  0  0  0  0  0  0  0
   44.8027  -38.5036    0.1204 C   0  0  2  0  0  0  0  0  0  0  0  0
   45.9075  -38.9545    1.1324 C   0  0  0  0  0  0  0  0  0  0  0  0
   46.8541  -37.6591    1.2577 C   0  0  0  0  0  0  0  0  0  0  0  0
   46.3094  -36.6906    0.1739 C   0  0  1  0  0  0  0  0  0  0  0  0
   40.6558  -38.4750    1.4603 C   0  0  0  0  0  0  0  0  0  0  0  0
   44.2352  -36.6938    1.7995 C   0  0  0  0  0  0  0  0  0  0  0  0
   52.1469  -36.5624   -0.8085 C   0  0  0  0  0  0  0  0  0  0  0  0
   46.4027  -34.3985    1.6141 C   0  0  0  0  0  0  0  0  0  0  0  0
   43.1317  -38.9569    1.4041 H   0  0  0  0  0  0  0  0  0  0  0  0
   45.1577  -38.6494   -0.9127 H   0  0  0  0  0  0  0  0  0  0  0  0
   42.5091  -38.7820   -1.5725 H   0  0  0  0  0  0  0  0  0  0  0  0
   51.7987  -34.8163   -1.9180 H   0  0  0  0  0  0  0  0  0  0  0  0
   50.7405  -34.9762    0.7668 H   0  0  0  0  0  0  0  0  0  0  0  0
   50.5136  -33.6939   -0.2190 H   0  0  0  0  0  0  0  0  0  0  0  0
   49.0457  -34.9660   -1.6142 H   0  0  0  0  0  0  0  0  0  0  0  0
   49.3736  -36.3299   -0.7777 H   0  0  0  0  0  0  0  0  0  0  0  0
   48.6478  -35.3553    1.2028 H   0  0  0  0  0  0  0  0  0  0  0  0
   48.4673  -33.9099    0.4639 H   0  0  0  0  0  0  0  0  0  0  0  0
   46.3645  -34.7728   -0.5218 H   0  0  0  0  0  0  0  0  0  0  0  0
   53.9170  -34.5074   -0.7911 H   0  0  0  0  0  0  0  0  0  0  0  0
   53.1571  -34.5521    0.6533 H   0  0  0  0  0  0  0  0  0  0  0  0
   52.9009  -33.3023   -0.3657 H   0  0  0  0  0  0  0  0  0  0  0  0
   38.1810  -40.5830   -1.3453 H   0  0  0  0  0  0  0  0  0  0  0  0
   39.2623  -41.1909    1.3323 H   0  0  0  0  0  0  0  0  0  0  0  0
   39.4886  -42.1164    0.0057 H   0  0  0  0  0  0  0  0  0  0  0  0
   39.6642  -37.4499   -0.7495 H   0  0  0  0  0  0  0  0  0  0  0  0
   39.6817  -38.7615   -1.7226 H   0  0  0  0  0  0  0  0  0  0  0  0
   37.5123  -38.5004   -0.5331 H   0  0  0  0  0  0  0  0  0  0  0  0
   38.3034  -38.7682    0.8705 H   0  0  0  0  0  0  0  0  0  0  0  0
   30.1346  -42.9722    0.7140 H   0  0  0  0  0  0  0  0  0  0  0  0
   32.9830  -39.2745   -0.4773 H   0  0  0  0  0  0  0  0  0  0  0  0
   32.5591  -43.1749    0.9245 H   0  0  0  0  0  0  0  0  0  0  0  0
   30.6465  -39.0656   -0.6460 H   0  0  0  0  0  0  0  0  0  0  0  0
   28.6868  -39.0155   -0.4279 H   0  0  0  0  0  0  0  0  0  0  0  0
   27.7044  -39.8965   -1.3904 H   0  0  0  0  0  0  0  0  0  0  0  0
   28.5594  -42.9583    0.4908 H   0  0  0  0  0  0  0  0  0  0  0  0
   27.4747  -41.9941    1.2401 H   0  0  0  0  0  0  0  0  0  0  0  0
   26.2267  -40.2437    0.5454 H   0  0  0  0  0  0  0  0  0  0  0  0
   27.1621  -39.2053    1.3908 H   0  0  0  0  0  0  0  0  0  0  0  0
   26.2462  -41.8110   -0.8603 H   0  0  0  0  0  0  0  0  0  0  0  0
   27.2918  -42.8702   -1.5328 H   0  0  0  0  0  0  0  0  0  0  0  0
   34.6573  -41.5381    1.4759 H   0  0  0  0  0  0  0  0  0  0  0  0
   34.6688  -42.5167    0.1683 H   0  0  0  0  0  0  0  0  0  0  0  0
   41.8221  -42.2456    0.3278 H   0  0  0  0  0  0  0  0  0  0  0  0
   43.9314  -41.1403    0.7615 H   0  0  0  0  0  0  0  0  0  0  0  0
   43.6975  -40.8450   -0.8278 H   0  0  0  0  0  0  0  0  0  0  0  0
   43.7791  -35.3772   -0.5929 H   0  0  0  0  0  0  0  0  0  0  0  0
   44.0527  -36.6197   -1.6171 H   0  0  0  0  0  0  0  0  0  0  0  0
   41.6896  -36.5364   -1.0222 H   0  0  0  0  0  0  0  0  0  0  0  0
   42.0887  -36.6953    0.5536 H   0  0  0  0  0  0  0  0  0  0  0  0
   46.4186  -39.7375    0.7779 H   0  0  0  0  0  0  0  0  0  0  0  0
   45.5063  -39.1907    2.0174 H   0  0  0  0  0  0  0  0  0  0  0  0
   46.7803  -37.2516    2.1680 H   0  0  0  0  0  0  0  0  0  0  0  0
   47.8080  -37.8969    1.0748 H   0  0  0  0  0  0  0  0  0  0  0  0
   46.6504  -36.8262   -0.7563 H   0  0  0  0  0  0  0  0  0  0  0  0
   41.4057  -38.7868    2.0437 H   0  0  0  0  0  0  0  0  0  0  0  0
   39.7890  -38.8217    1.8186 H   0  0  0  0  0  0  0  0  0  0  0  0
   40.6357  -37.4753    1.4498 H   0  0  0  0  0  0  0  0  0  0  0  0
   44.8580  -37.1003    2.4680 H   0  0  0  0  0  0  0  0  0  0  0  0
   43.3201  -37.0785    1.9203 H   0  0  0  0  0  0  0  0  0  0  0  0
   44.2008  -35.7037    1.9356 H   0  0  0  0  0  0  0  0  0  0  0  0
   52.9771  -36.8091   -1.3083 H   0  0  0  0  0  0  0  0  0  0  0  0
   51.3701  -37.0691   -1.1827 H   0  0  0  0  0  0  0  0  0  0  0  0
   52.2597  -36.7922    0.1582 H   0  0  0  0  0  0  0  0  0  0  0  0
   45.4111  -34.4493    1.7324 H   0  0  0  0  0  0  0  0  0  0  0  0
   46.6834  -33.4398    1.5657 H   0  0  0  0  0  0  0  0  0  0  0  0
   46.8536  -34.8386    2.3907 H   0  0  0  0  0  0  0  0  0  0  0  0
  1  2  1  0  0  0  0
  2  3  1  0  0  0  0
  3  4  1  0  0  0  0
  4  5  1  0  0  0  0
  1  6  1  0  0  0  0
  7  8  1  0  0  0  0
  7 10  1  0  0  0  0
  8 29  1  0  0  0  0
 28  9  1  0  0  0  0
  9 10  1  0  0  0  0
 11 12  2  0  0  0  0
 13 14  1  0  0  0  0
 11 16  1  0  0  0  0
 12 15  1  0  0  0  0
 15 13  2  0  0  0  0
 14 16  2  0  0  0  0
 11 17  1  0  0  0  0
 17 18  1  0  0  0  0
 17 19  1  0  0  0  0
 18 20  1  0  0  0  0
 20 21  1  0  0  0  0
 19 22  1  0  0  0  0
 22 23  1  0  0  0  0
 13 24  1  0  0  0  0
 24 25  1  0  0  0  0
 25 26  2  0  0  0  0
 25 27  1  0  0  0  0
  7 27  1  1  0  0  0
 28 29  1  0  0  0  0
 28 32  1  0  0  0  0
 29 30  2  0  0  0  0
 30 31  1  0  0  0  0
 31 33  1  0  0  0  0
 32 33  1  0  0  0  0
 32 35  1  0  0  0  0
 33 37  1  0  0  0  0
 36 34  1  0  0  0  0
 34 35  1  0  0  0  0
 36 37  1  0  0  0  0
 38 39  1  0  0  0  0
 39 40  1  0  0  0  0
 40 36  1  0  0  0  0
 37 38  1  0  0  0  0
 28 41  1  1  0  0  0
 36 42  1  1  0  0  0
 40  5  1  1  0  0  0
  1 43  1  0  0  0  0
  5 44  1  1  0  0  0
 33 45  1  1  0  0  0
 37 46  1  6  0  0  0
 32 47  1  6  0  0  0
  1 48  1  0  0  0  0
  2 49  1  0  0  0  0
  2 50  1  0  0  0  0
  3 51  1  0  0  0  0
  3 52  1  0  0  0  0
  4 53  1  0  0  0  0
  4 54  1  0  0  0  0
  5 55  1  0  0  0  0
  6 56  1  0  0  0  0
  6 57  1  0  0  0  0
  6 58  1  0  0  0  0
  7 59  1  0  0  0  0
  8 60  1  0  0  0  0
  8 61  1  0  0  0  0
  9 62  1  0  0  0  0
  9 63  1  0  0  0  0
 10 64  1  0  0  0  0
 10 65  1  0  0  0  0
 12 66  1  0  0  0  0
 14 67  1  0  0  0  0
 15 68  1  0  0  0  0
 16 69  1  0  0  0  0
 18 70  1  0  0  0  0
 18 71  1  0  0  0  0
 19 72  1  0  0  0  0
 19 73  1  0  0  0  0
 20 74  1  0  0  0  0
 20 75  1  0  0  0  0
 22 76  1  0  0  0  0
 22 77  1  0  0  0  0
 24 78  1  0  0  0  0
 24 79  1  0  0  0  0
 30 80  1  0  0  0  0
 31 81  1  0  0  0  0
 31 82  1  0  0  0  0
 34 83  1  0  0  0  0
 34 84  1  0  0  0  0
 35 85  1  0  0  0  0
 35 86  1  0  0  0  0
 38 87  1  0  0  0  0
 38 88  1  0  0  0  0
 39 89  1  0  0  0  0
 39 90  1  0  0  0  0
 40 91  1  0  0  0  0
 41 92  1  0  0  0  0
 41 93  1  0  0  0  0
 41 94  1  0  0  0  0
 42 95  1  0  0  0  0
 42 96  1  0  0  0  0
 42 97  1  0  0  0  0
 43 98  1  0  0  0  0
 43 99  1  0  0  0  0
 43100  1  0  0  0  0
 44101  1  0  0  0  0
 44102  1  0  0  0  0
 44103  1  0  0  0  0
M  END
>  <Substance ID> (216)
216

>  <Mouse_Female_Canc> (216)
3

>  <SAL> (216)
1

>  <Rat_Male_Canc> (216)
1

>  <TD50_Rat> (216)
0.523

>  <TD50_Mouse> (216)
0.616

>  <Rat_Female_Canc> (216)
3

>  <Canc> (216)
3

>  <MolWeight> (216)
644.81

>  <Mouse_Male_Canc> (216)
3

>  <Mouse_Male_NTP> (216)
ND

>  <ChemName> (216)
Phenesterin

>  <Rat_Male_NTP> (216)
ND

>  <Reference> (216)
NTP60

>  <Formula> (216)
C39H59Cl2NO2

>  <SMILES> (216)
ClCCN(c1ccc(cc1)CC(=O)O[C@@H]5C/C4=C/C[C@@H]2[C@H](CC[C@@]3([C@H](CC[C@@H]23)[C@@H](C)CCCC(C)C)C)[C@@]4(C)CC5)CCCl

>  <Rat_Female_NTP> (216)
ND

>  <CAS> (216)
3546-10-9

>  <Mouse_Female_NTP> (216)
ND

>  <Synonyms> (216)
(3-beta)-cholest-5-en-3-ol 4-(bis(2-chloroethyl)amino)benzeneacetate; p-bis(2-chloroethyl)aminophenylacetate cholesteryl; (p-(bis(2-chloroethyl)amino)phenyl)acetic acid cholesterol ester; (4-(bis(2-chloroethyl)amino)phenyl)acetic acid cholesteryl ester; cholest-5-en-3beta-ol 4-(bis(2-chloroethyl)amino)benzeneacetate; cholesterol (p-(bis(2-chloroethyl)amino)phenyl)acetate; fenesterin; fenestrin; phenestrin.

$$$$
217


 37 36  0  0  0  0  0  0  0  0999 V2000
   35.7851  -53.8935   -0.4211 P   0  0  0  0  0  0  0  0  0  0  0  0
   37.3442  -53.8933   -0.1950 O   0  0  0  0  0  0  0  0  0  0  0  0
   35.4393  -55.2441   -1.0132 O   0  0  0  0  0  0  0  0  0  0  0  0
   35.2506  -53.9657    0.9964 O   0  0  0  0  0  0  0  0  0  0  0  0
   35.2247  -52.8748   -1.0893 O   0  0  0  0  0  0  0  0  0  0  0  0
   34.0813  -53.1324    1.1410 C   0  0  0  0  0  0  0  0  0  0  0  0
   35.9889  -56.3096   -0.2280 C   0  0  0  0  0  0  0  0  0  0  0  0
   38.0238  -52.5984   -0.1402 C   0  0  0  0  0  0  0  0  0  0  0  0
   37.2674  -51.3024   -0.2164 C   0  0  0  0  0  0  0  0  0  0  0  0
   39.3559  -52.4762   -0.0098 C   0  0  0  0  0  0  0  0  0  0  0  0
   39.9411  -50.8404    0.0368 Cl  0  0  0  0  0  0  0  0  0  0  0  0
   40.3045  -53.6810    0.0685 C   0  0  0  0  0  0  0  0  0  0  0  0
   39.8192  -54.8139   -0.0460 O   0  0  0  0  0  0  0  0  0  0  0  0
   41.7595  -53.6141    0.2522 N   0  0  0  0  0  0  0  0  0  0  0  0
   42.4734  -52.3756    0.5986 C   0  0  0  0  0  0  0  0  0  0  0  0
   42.4941  -54.8783    0.1198 C   0  0  0  0  0  0  0  0  0  0  0  0
   43.2741  -51.7881   -0.6058 C   0  0  0  0  0  0  0  0  0  0  0  0
   43.9134  -54.8610    0.7549 C   0  0  0  0  0  0  0  0  0  0  0  0
   33.7429  -53.1922    2.0800 H   0  0  0  0  0  0  0  0  0  0  0  0
   33.3700  -53.4431    0.5105 H   0  0  0  0  0  0  0  0  0  0  0  0
   34.3197  -52.1838    0.9328 H   0  0  0  0  0  0  0  0  0  0  0  0
   35.7461  -57.1876   -0.6403 H   0  0  0  0  0  0  0  0  0  0  0  0
   35.6200  -56.2645    0.7004 H   0  0  0  0  0  0  0  0  0  0  0  0
   36.9844  -56.2211   -0.1954 H   0  0  0  0  0  0  0  0  0  0  0  0
   37.9092  -50.5376   -0.1621 H   0  0  0  0  0  0  0  0  0  0  0  0
   36.6202  -51.2485    0.5441 H   0  0  0  0  0  0  0  0  0  0  0  0
   36.7685  -51.2575   -1.0820 H   0  0  0  0  0  0  0  0  0  0  0  0
   41.8061  -51.6954    0.9018 H   0  0  0  0  0  0  0  0  0  0  0  0
   43.1121  -52.5715    1.3427 H   0  0  0  0  0  0  0  0  0  0  0  0
   41.9609  -55.5985    0.5636 H   0  0  0  0  0  0  0  0  0  0  0  0
   42.5890  -55.0851   -0.8539 H   0  0  0  0  0  0  0  0  0  0  0  0
   43.7397  -50.9505   -0.3204 H   0  0  0  0  0  0  0  0  0  0  0  0
   42.6453  -51.5806   -1.3552 H   0  0  0  0  0  0  0  0  0  0  0  0
   43.9509  -52.4565   -0.9145 H   0  0  0  0  0  0  0  0  0  0  0  0
   44.3481  -55.7521    0.6248 H   0  0  0  0  0  0  0  0  0  0  0  0
   43.8391  -54.6666    1.7331 H   0  0  0  0  0  0  0  0  0  0  0  0
   44.4670  -54.1533    0.3159 H   0  0  0  0  0  0  0  0  0  0  0  0
  1  2  1  0  0  0  0
  1  3  1  0  0  0  0
  1  4  1  0  0  0  0
  1  5  2  0  0  0  0
  4  6  1  0  0  0  0
  3  7  1  0  0  0  0
  2  8  1  0  0  0  0
  8  9  1  0  0  0  0
  8 10  2  0  0  0  0
 10 11  1  0  0  0  0
 10 12  1  0  0  0  0
 12 13  2  0  0  0  0
 12 14  1  0  0  0  0
 14 15  1  0  0  0  0
 14 16  1  0  0  0  0
 15 17  1  0  0  0  0
 16 18  1  0  0  0  0
  6 19  1  0  0  0  0
  6 20  1  0  0  0  0
  6 21  1  0  0  0  0
  7 22  1  0  0  0  0
  7 23  1  0  0  0  0
  7 24  1  0  0  0  0
  9 25  1  0  0  0  0
  9 26  1  0  0  0  0
  9 27  1  0  0  0  0
 15 28  1  0  0  0  0
 15 29  1  0  0  0  0
 16 30  1  0  0  0  0
 16 31  1  0  0  0  0
 17 32  1  0  0  0  0
 17 33  1  0  0  0  0
 17 34  1  0  0  0  0
 18 35  1  0  0  0  0
 18 36  1  0  0  0  0
 18 37  1  0  0  0  0
M  END
>  <Substance ID> (217)
217

>  <Mouse_Female_Canc> (217)
1

>  <SAL> (217)
3

>  <Rat_Male_Canc> (217)
2

>  <TD50_Rat> (217)
NP

>  <TD50_Mouse> (217)
NP

>  <Rat_Female_Canc> (217)
2

>  <Canc> (217)
2

>  <MolWeight> (217)
299.69

>  <Mouse_Male_Canc> (217)
1

>  <Mouse_Male_NTP> (217)
ND

>  <ChemName> (217)
Phosphamidon

>  <Rat_Male_NTP> (217)
ND

>  <Reference> (217)
NTP16

>  <Formula> (217)
C10H19ClNO5P

>  <SMILES> (217)
O=P(OC(=C(C(=O)N(CC)CC)Cl)C)(OC)OC

>  <Rat_Female_NTP> (217)
ND

>  <CAS> (217)
13171-21-6

>  <Mouse_Female_NTP> (217)
ND

>  <Synonyms> (217)
1-chloro-diethylcarbamoyl-1-propen-2-yl dimethyl phosphate; O,O-dimethyl-O-(2-chloro-2-(N,N-diethylcarbamoyl)-1-methylvinyl)phosphate; 2-Chloro-2-diethylcarbamoyl-1-methylvinyl dimethyl phosphate; 2-chloro-2-diethyl carbamyl-1-methyl vinyl dimethyl-phosphate; 2-chloro-3-(diethylamino)-1-methyl-3-oxo-1-propenyl dimethyl phosphate; 2-Chloro-N,N-diethyl-3-hydroxycrotonamide ester of dimethyl phosphate; Apamidon; Dimecron; dimercron; dimethyl-2-chloro-2-diethylcarbamoyl-1-methylvinyl phosphate; dimethyl 2-chloro-3-(diethylamino)-1-methyl-3-oxo-1-propenylphosphorate; dimethyl diethylamido-1-chlorocrotonyl (2) phosphate; Dixon; C 570; crotonamide, 2-chloro-N,N-diethyl-3-hydroxy-, dimethyl phosphate; ML 97; Phosphamidon 8; Phosphamidon (mixed isomers); Phosphoric acid 2-chloro-3-(diethylamino)-1-methyl-3-oxo-1-propenyl dimethyl ester; Phosphoric acid, dimethyl ester, ester with 2-chloro-N-N-diethyl-3-hydroxycrotonamide; phosphoric acid Chloro-3-(diethylamino)-1-methyl-3-oxo-1-propenyl dimethyl ester.

$$$$
218
 

 50 51  0  0  0  0  0  0  0  0999 V2000
   16.1476  -10.9198    0.8475 C   0  0  0  0  0  0  0  0  0  1  0  0
   16.4207  -12.0773   -0.1504 C   0  0  1  0  0  0  0  0  0  2  0  0
   17.7293  -12.9075    0.1425 C   0  0  0  0  0  0  0  0  0  3  0  0
   19.0664  -12.1311    0.0313 C   0  0  0  0  0  0  0  0  0  4  0  0
   20.2135  -12.7944    0.2151 C   0  0  0  0  0  0  0  0  0  5  0  0
   21.4765  -12.0607    0.1051 C   0  0  0  0  0  0  0  0  0  6  0  0
   21.5054  -10.7831   -0.1613 C   0  0  0  0  0  0  0  0  0  7  0  0
   20.2895  -10.0284   -0.3697 C   0  0  0  0  0  0  0  0  0  8  0  0
   19.1226  -10.6695   -0.2882 C   0  0  0  0  0  0  0  0  0  9  0  0
   22.7694  -10.2667   -0.2221 O   0  0  0  0  0  0  0  0  0 10  0  0
   23.6164  -11.4446    0.0493 C   0  0  0  0  0  0  0  0  0 11  0  0
   22.7229  -12.6042    0.2614 O   0  0  0  0  0  0  0  0  0 12  0  0
   14.9884  -13.1059   -0.1254 S   0  0  0  0  0  0  0  0  0 13  0  0
   13.6630  -12.4835   -0.0059 O   0  0  0  0  0  0  0  0  0 14  0  0
   15.1075  -14.8563   -0.2036 C   0  0  0  0  0  0  0  0  0 15  0  0
   13.6805  -15.4368   -0.0690 C   0  0  0  0  0  0  0  0  0 16  0  0
   13.7230  -16.9744   -0.1017 C   0  0  0  0  0  0  0  0  0 17  0  0
   12.2892  -17.5341    0.0111 C   0  0  0  0  0  0  0  0  0 18  0  0
   12.3435  -19.0724   -0.0328 C   0  0  0  0  0  0  0  0  0 19  0  0
   10.9198  -19.6543    0.0434 C   0  0  0  0  0  0  0  0  0 20  0  0
   11.0010  -21.1921   -0.0153 C   0  0  0  0  0  0  0  0  0 21  0  0
    9.5836  -21.7901    0.0417 C   0  0  0  0  0  0  0  0  0 22  0  0
   15.3040  -10.4488    0.5897 H   0  0  0  0  0  0  0  0  0  0  0  0
   16.9100  -10.2731    0.8252 H   0  0  0  0  0  0  0  0  0  0  0  0
   16.0527  -11.2909    1.7713 H   0  0  0  0  0  0  0  0  0  0  0  0
   16.5906  -11.6866   -1.0550 H   0  0  0  0  0  0  0  0  0  0  0  0
   17.6613  -13.2674    1.0731 H   0  0  0  0  0  0  0  0  0  0  0  0
   17.7616  -13.6668   -0.5074 H   0  0  0  0  0  0  0  0  0  0  0  0
   20.2089  -13.7724    0.4237 H   0  0  0  0  0  0  0  0  0  0  0  0
   20.3227   -9.0492   -0.5701 H   0  0  0  0  0  0  0  0  0  0  0  0
   18.2725  -10.1662   -0.4429 H   0  0  0  0  0  0  0  0  0  0  0  0
   24.2187  -11.6173   -0.7301 H   0  0  0  0  0  0  0  0  0  0  0  0
   24.1677  -11.2857    0.8683 H   0  0  0  0  0  0  0  0  0  0  0  0
   15.5046  -15.1308   -1.0794 H   0  0  0  0  0  0  0  0  0  0  0  0
   15.6822  -15.1912    0.5430 H   0  0  0  0  0  0  0  0  0  0  0  0
   13.2829  -15.1365    0.7980 H   0  0  0  0  0  0  0  0  0  0  0  0
   13.1175  -15.1065   -0.8266 H   0  0  0  0  0  0  0  0  0  0  0  0
   14.1319  -17.2777   -0.9624 H   0  0  0  0  0  0  0  0  0  0  0  0
   14.2718  -17.3084    0.6646 H   0  0  0  0  0  0  0  0  0  0  0  0
   11.8813  -17.2382    0.8748 H   0  0  0  0  0  0  0  0  0  0  0  0
   11.7373  -17.1968   -0.7516 H   0  0  0  0  0  0  0  0  0  0  0  0
   12.7746  -19.3638   -0.8868 H   0  0  0  0  0  0  0  0  0  0  0  0
   12.8793  -19.4066    0.7426 H   0  0  0  0  0  0  0  0  0  0  0  0
   10.4890  -19.3742    0.9013 H   0  0  0  0  0  0  0  0  0  0  0  0
   10.3787  -19.3178   -0.7273 H   0  0  0  0  0  0  0  0  0  0  0  0
   11.4442  -21.4689   -0.8679 H   0  0  0  0  0  0  0  0  0  0  0  0
   11.5341  -21.5264    0.7618 H   0  0  0  0  0  0  0  0  0  0  0  0
    9.6405  -22.7878    0.0034 H   0  0  0  0  0  0  0  0  0  0  0  0
    9.0493  -21.4571   -0.7352 H   0  0  0  0  0  0  0  0  0  0  0  0
    9.1392  -21.5146    0.8941 H   0  0  0  0  0  0  0  0  0  0  0  0
  1  2  1  0  0  0  0
  2  3  1  0  0  0  0
  2 13  1  0  0  0  0
  3  4  1  0  0  0  0
  4  5  2  0  0  0  0
  4  9  1  0  0  0  0
  5  6  1  0  0  0  0
  6  7  2  0  0  0  0
  6 12  1  0  0  0  0
  7  8  1  0  0  0  0
  7 10  1  0  0  0  0
  8  9  2  0  0  0  0
 10 11  1  0  0  0  0
 11 12  1  0  0  0  0
 13 14  2  0  0  0  0
 13 15  1  0  0  0  0
 15 16  1  0  0  0  0
 16 17  1  0  0  0  0
 17 18  1  0  0  0  0
 18 19  1  0  0  0  0
 19 20  1  0  0  0  0
 20 21  1  0  0  0  0
 21 22  1  0  0  0  0
  1 23  1  0  0  0  0
  1 24  1  0  0  0  0
  1 25  1  0  0  0  0
  2 26  1  0  0  0  0
  3 27  1  0  0  0  0
  3 28  1  0  0  0  0
  5 29  1  0  0  0  0
  8 30  1  0  0  0  0
  9 31  1  0  0  0  0
 11 32  1  0  0  0  0
 11 33  1  0  0  0  0
 15 34  1  0  0  0  0
 15 35  1  0  0  0  0
 16 36  1  0  0  0  0
 16 37  1  0  0  0  0
 17 38  1  0  0  0  0
 17 39  1  0  0  0  0
 18 40  1  0  0  0  0
 18 41  1  0  0  0  0
 19 42  1  0  0  0  0
 19 43  1  0  0  0  0
 20 44  1  0  0  0  0
 20 45  1  0  0  0  0
 21 46  1  0  0  0  0
 21 47  1  0  0  0  0
 22 48  1  0  0  0  0
 22 49  1  0  0  0  0
 22 50  1  0  0  0  0
M  END
>  <Substance ID> (218)
218

>  <Mouse_Female_Canc> (218)
1

>  <SAL> (218)
1

>  <Rat_Male_Canc> (218)
1

>  <TD50_Rat> (218)
NP

>  <TD50_Mouse> (218)
62.2

>  <Rat_Female_Canc> (218)
1

>  <Canc> (218)
3

>  <MolWeight> (218)
324.48

>  <Mouse_Male_Canc> (218)
3

>  <Mouse_Male_NTP> (218)
ND

>  <ChemName> (218)
Piperonyl sulfoxide

>  <Rat_Male_NTP> (218)
ND

>  <Reference> (218)
NTP124

>  <Formula> (218)
C18H28O3S

>  <SMILES> (218)
CC(CC1=CC2=C(C=C1)OCO2)S(=O)CCCCCCCC

>  <Rat_Female_NTP> (218)
ND

>  <CAS> (218)
120-62-7

>  <Mouse_Female_NTP> (218)
ND

>  <Synonyms> (218)
1,2-(methylenedioxy)-4-(2-(octylsulfinyl)propyl)benzene; 1-methyl-2-(3,4-methylenedioxyphenyl)ethyl octyl sulfoxide; 2-(1,3-benzodioxol-5-yl)ethyl octyl sulfoxide; 5-(2-(octylsulfinyl)propyl)-1,3-benzodioxole; alpha-methyl-3,4-(methylenedioxy)phenethyl octyl sulfoxide; isosafrole n-octylsulfoxide; isosafrole, octyl sulfoxide; Methylenedioxy-4-(2-(octylsulfinyl)propyl)benzene; n-octylisosafrole sulfoxide; n-octylsulfoxide of isosafrole; sulfox-cide; sulfoxyl.

$$$$
219


 15 15  0  0  0  0  0  0  0  0999 V2000
   27.9742  -65.0144   -0.4017 C   0  0  0  0  0  0  0  0  0  0  0  0
   28.9960  -65.9528    0.3554 C   0  0  0  0  0  0  0  0  0  0  0  0
   29.8953  -65.1061   -0.3347 C   0  0  0  0  0  0  0  0  0  0  0  0
   29.1218  -64.2627   -1.0382 O   0  0  0  0  0  0  0  0  0  0  0  0
   31.1311  -65.1358   -0.2988 O   0  0  0  0  0  0  0  0  0  0  0  0
   29.1582  -67.3959   -0.1571 C   0  0  0  0  0  0  0  0  0  0  0  0
   29.1803  -65.7624    1.8724 C   0  0  0  0  0  0  0  0  0  0  0  0
   27.3893  -65.4939   -1.0559 H   0  0  0  0  0  0  0  0  0  0  0  0
   27.4085  -64.4558    0.2049 H   0  0  0  0  0  0  0  0  0  0  0  0
   29.8296  -67.8768    0.4067 H   0  0  0  0  0  0  0  0  0  0  0  0
   29.4714  -67.3797   -1.1066 H   0  0  0  0  0  0  0  0  0  0  0  0
   28.2790  -67.8696   -0.1045 H   0  0  0  0  0  0  0  0  0  0  0  0
   29.8521  -66.4205    2.2122 H   0  0  0  0  0  0  0  0  0  0  0  0
   28.3064  -65.9094    2.3359 H   0  0  0  0  0  0  0  0  0  0  0  0
   29.5022  -64.8335    2.0555 H   0  0  0  0  0  0  0  0  0  0  0  0
  1  2  1  0  0  0  0
  2  3  1  0  0  0  0
  3  4  1  0  0  0  0
  4  1  1  0  0  0  0
  3  5  2  0  0  0  0
  2  6  1  0  0  0  0
  2  7  1  0  0  0  0
  1  8  1  0  0  0  0
  1  9  1  0  0  0  0
  6 10  1  0  0  0  0
  6 11  1  0  0  0  0
  6 12  1  0  0  0  0
  7 13  1  0  0  0  0
  7 14  1  0  0  0  0
  7 15  1  0  0  0  0
M  END
>  <Substance ID> (219)
219

>  <Mouse_Female_Canc> (219)
1

>  <SAL> (219)
3

>  <Rat_Male_Canc> (219)
3

>  <TD50_Rat> (219)
211

>  <TD50_Mouse> (219)
NP

>  <Rat_Female_Canc> (219)
3

>  <Canc> (219)
3

>  <MolWeight> (219)
100.12

>  <Mouse_Male_Canc> (219)
1

>  <Mouse_Male_NTP> (219)
ND

>  <ChemName> (219)
Pivalolactone

>  <Rat_Male_NTP> (219)
ND

>  <Reference> (219)
NTP140

>  <Formula> (219)
C5H8O2

>  <SMILES> (219)
O(CC1(C)C)C1=O

>  <Rat_Female_NTP> (219)
ND

>  <CAS> (219)
1955-45-9

>  <Mouse_Female_NTP> (219)
ND

>  <Synonyms> (219)
3,3-dimethyl-2-oxetanone; 3,3-Dimethyl-beta-propiolactone; alpha, alpha-dimethyl-beta-propiolactone; dimethyl propiolactone; pivalic acid lactone.

$$$$
220


 35 35  0  0  0  0  0  0  0  0999 V2000
   33.5273  -81.2391    0.0453 C   0  0  0  0  0  0  0  0  0  0  0  0
   34.1912  -82.3957    0.0134 C   0  0  0  0  0  0  0  0  0  0  0  0
   36.3290  -81.2211   -0.0968 C   0  0  0  0  0  0  0  0  0  0  0  0
   35.5828  -79.9727   -0.0743 C   0  0  0  0  0  0  0  0  0  0  0  0
   35.6769  -82.3876   -0.0574 C   0  0  0  0  0  0  0  0  0  0  0  0
   34.2575  -79.9803   -0.0025 C   0  0  0  0  0  0  0  0  0  0  0  0
   32.0634  -81.1748    0.1387 C   0  0  0  0  0  0  0  0  0  0  0  0
   31.2762  -82.3616    0.1404 N   0  0  0  0  0  0  0  0  0  0  0  0
   31.5445  -80.0597    0.2337 O   0  0  0  0  0  0  0  0  0  0  0  0
   29.8121  -82.3724    0.3167 C   0  0  0  0  0  0  0  0  0  0  0  0
   29.0701  -81.2138   -0.3969 C   0  0  0  0  0  0  0  0  0  0  0  0
   29.2370  -83.7160   -0.1637 C   0  0  0  0  0  0  0  0  0  0  0  0
   37.8337  -81.1460   -0.1554 C   0  0  0  0  0  0  0  0  0  0  0  0
   38.4753  -82.4553   -0.0335 N   0  0  0  0  0  0  0  0  0  0  0  0
   39.8659  -82.2461   -0.0582 N   0  0  0  0  0  0  0  0  0  0  0  0
   40.5771  -83.5113    0.1540 C   0  0  0  0  0  0  0  0  0  0  0  0
   33.6932  -83.2625    0.0371 H   0  0  0  0  0  0  0  0  0  0  0  0
   36.0724  -79.1016   -0.1132 H   0  0  0  0  0  0  0  0  0  0  0  0
   36.1846  -83.2489   -0.0755 H   0  0  0  0  0  0  0  0  0  0  0  0
   33.7567  -79.1150    0.0190 H   0  0  0  0  0  0  0  0  0  0  0  0
   31.7427  -83.2372    0.0150 H   0  0  0  0  0  0  0  0  0  0  0  0
   29.6580  -82.2423    1.2962 H   0  0  0  0  0  0  0  0  0  0  0  0
   28.0876  -81.2930   -0.2289 H   0  0  0  0  0  0  0  0  0  0  0  0
   29.2446  -81.2613   -1.3804 H   0  0  0  0  0  0  0  0  0  0  0  0
   29.3989  -80.3384   -0.0424 H   0  0  0  0  0  0  0  0  0  0  0  0
   28.2446  -83.7171   -0.0417 H   0  0  0  0  0  0  0  0  0  0  0  0
   29.6388  -84.4607    0.3693 H   0  0  0  0  0  0  0  0  0  0  0  0
   29.4535  -83.8448   -1.1315 H   0  0  0  0  0  0  0  0  0  0  0  0
   38.0988  -80.7413   -1.0306 H   0  0  0  0  0  0  0  0  0  0  0  0
   38.1531  -80.5636    0.5921 H   0  0  0  0  0  0  0  0  0  0  0  0
   38.2100  -82.8869    0.8286 H   0  0  0  0  0  0  0  0  0  0  0  0
   40.1262  -81.8669   -0.9461 H   0  0  0  0  0  0  0  0  0  0  0  0
   41.5633  -83.3472    0.1340 H   0  0  0  0  0  0  0  0  0  0  0  0
   40.3324  -84.1572   -0.5691 H   0  0  0  0  0  0  0  0  0  0  0  0
   40.3212  -83.8931    1.0422 H   0  0  0  0  0  0  0  0  0  0  0  0
  1  2  2  0  0  0  0
  3  4  1  0  0  0  0
  1  6  1  0  0  0  0
  2  5  1  0  0  0  0
  5  3  2  0  0  0  0
  4  6  2  0  0  0  0
  1  7  1  0  0  0  0
  7  8  1  0  0  0  0
  7  9  2  0  0  0  0
  8 10  1  0  0  0  0
 10 11  1  0  0  0  0
 10 12  1  0  0  0  0
  3 13  1  0  0  0  0
 13 14  1  0  0  0  0
 14 15  1  0  0  0  0
 15 16  1  0  0  0  0
  2 17  1  0  0  0  0
  4 18  1  0  0  0  0
  5 19  1  0  0  0  0
  6 20  1  0  0  0  0
  8 21  1  0  0  0  0
 10 22  1  0  0  0  0
 11 23  1  0  0  0  0
 11 24  1  0  0  0  0
 11 25  1  0  0  0  0
 12 26  1  0  0  0  0
 12 27  1  0  0  0  0
 12 28  1  0  0  0  0
 13 29  1  0  0  0  0
 13 30  1  0  0  0  0
 14 31  1  0  0  0  0
 15 32  1  0  0  0  0
 16 33  1  0  0  0  0
 16 34  1  0  0  0  0
 16 35  1  0  0  0  0
M  END
>  <Substance ID> (220)
220

>  <Mouse_Female_Canc> (220)
3

>  <SAL> (220)
1

>  <Rat_Male_Canc> (220)
3

>  <TD50_Rat> (220)
0.351

>  <TD50_Mouse> (220)
0.558

>  <Rat_Female_Canc> (220)
3

>  <Canc> (220)
3

>  <MolWeight> (220)
257.8

>  <Mouse_Male_Canc> (220)
3

>  <Mouse_Male_NTP> (220)
ND

>  <ChemName> (220)
Procarbazine Hydrochloride

>  <Rat_Male_NTP> (220)
ND

>  <Reference> (220)
NTP19

>  <Formula> (220)
C12H19N3O.HCl

>  <SMILES> (220)
CNNCC1(=CC=C(C=C1)C(=O)NC(C)C).Cl

>  <Rat_Female_NTP> (220)
ND

>  <CAS> (220)
366-70-1

>  <Mouse_Female_NTP> (220)
ND

>  <Synonyms> (220)
1-(p-isopropylcarbamoylbenzyl)-2-methylhydrazine hydrochloride; 1-methyl-2-p-(isopropylcarbamoyl)benzohydrazide hydrochloride; 1-methyl-2-(p-isopropylcarbamoylbenzyl)hydrazine hydrochloride; 2-(p-(isopropylcarbamoyl)benzyl)-1-methylhydrazine hydrochloride; p-(N'-methylhydrazinomethyl)-N-isopropylbenzamide hydrochloride; Ibenzmethyzine hydrochloride; IBZ; Matulane; MBH; MIH hydrochloride; nathulane; natulan; natulanar; natulan hydrochloride; N-isopropyl-p-(2-methylhydrazinomethyl)benzamide hydrochloride; N-(1-methylethyl)-4-((2-methylhydrazino)methyl)benzamide monohydrochloride; N-isopropyl-alpha-(2-methylhydrazino)-p-toluamide hydrochloride; N-isopropyl-alpha-(2-methylhydrazino)-p-toluamide monohydrochloride; PCB hydrochloride; ro 4-6467.

$$$$
221


 27 29  0  0  0  0  0  0  0  0999 V2000
   32.7234  -90.5569    0.0000 C   0  0  0  0  0  0  0  0  0  0  0  0
   32.7442  -91.8889   -0.0002 C   0  0  0  0  0  0  0  0  0  0  0  0
   34.0258  -92.6006   -0.0004 C   0  0  0  0  0  0  0  0  0  0  0  0
   33.9811  -89.8085    0.0000 C   0  0  0  0  0  0  0  0  0  0  0  0
   35.1387  -90.4650   -0.0003 C   0  0  0  0  0  0  0  0  0  0  0  0
   35.1652  -91.9114   -0.0005 C   0  0  0  0  0  0  0  0  0  0  0  0
   36.3983  -92.5738   -0.0002 N   0  0  0  0  0  0  0  0  0  0  0  0
   36.3950  -89.7540    0.0003 C   0  0  0  0  0  0  0  0  0  0  0  0
   37.5242  -90.4577    0.0005 C   0  0  0  0  0  0  0  0  0  0  0  0
   37.4971  -91.9229    0.0002 C   0  0  0  0  0  0  0  0  0  0  0  0
   39.9188  -91.9679    0.0002 C   0  0  0  0  0  0  0  0  0  0  0  0
   39.9392  -90.4907    0.0002 C   0  0  0  0  0  0  0  0  0  0  0  0
   38.7657  -92.6403    0.0002 C   0  0  0  0  0  0  0  0  0  0  0  0
   38.8110  -89.7796    0.0007 C   0  0  0  0  0  0  0  0  0  0  0  0
   31.5464  -92.6058   -0.0005 N   0  0  0  0  0  0  0  0  0  0  0  0
   41.1257  -92.6707   -0.0003 N   0  0  0  0  0  0  0  0  0  0  0  0
   31.8503  -90.0694    0.0002 H   0  0  0  0  0  0  0  0  0  0  0  0
   34.0443  -93.6004   -0.0005 H   0  0  0  0  0  0  0  0  0  0  0  0
   33.9706  -88.8086    0.0002 H   0  0  0  0  0  0  0  0  0  0  0  0
   36.4161  -88.7543    0.0005 H   0  0  0  0  0  0  0  0  0  0  0  0
   40.8181  -90.0137   -0.0001 H   0  0  0  0  0  0  0  0  0  0  0  0
   38.7723  -93.6403    0.0002 H   0  0  0  0  0  0  0  0  0  0  0  0
   38.8498  -88.7803    0.0010 H   0  0  0  0  0  0  0  0  0  0  0  0
   31.5621  -93.6057   -0.0007 H   0  0  0  0  0  0  0  0  0  0  0  0
   30.6726  -92.1195   -0.0006 H   0  0  0  0  0  0  0  0  0  0  0  0
   41.1221  -93.6707   -0.0003 H   0  0  0  0  0  0  0  0  0  0  0  0
   41.9936  -92.1739   -0.0006 H   0  0  0  0  0  0  0  0  0  0  0  0
  1  2  2  0  0  0  0
  1  4  1  0  0  0  0
  2  3  1  0  0  0  0
  3  6  2  0  0  0  0
  5  4  2  0  0  0  0
  5  6  1  0  0  0  0
  5  8  1  0  0  0  0
  6  7  1  0  0  0  0
  7 10  2  0  0  0  0
  9  8  2  0  0  0  0
  9 10  1  0  0  0  0
 11 12  1  0  0  0  0
  9 14  1  0  0  0  0
 10 13  1  0  0  0  0
 13 11  2  0  0  0  0
 12 14  2  0  0  0  0
  2 15  1  0  0  0  0
 11 16  1  0  0  0  0
  1 17  1  0  0  0  0
  3 18  1  0  0  0  0
  4 19  1  0  0  0  0
  8 20  1  0  0  0  0
 12 21  1  0  0  0  0
 13 22  1  0  0  0  0
 14 23  1  0  0  0  0
 15 24  1  0  0  0  0
 15 25  1  0  0  0  0
 16 26  1  0  0  0  0
 16 27  1  0  0  0  0
M  END
>  <Substance ID> (221)
221

>  <Mouse_Female_Canc> (221)
2

>  <SAL> (221)
3

>  <Rat_Male_Canc> (221)
2

>  <TD50_Rat> (221)
NP

>  <TD50_Mouse> (221)
NP

>  <Rat_Female_Canc> (221)
1

>  <Canc> (221)
2

>  <MolWeight> (221)
245.75

>  <Mouse_Male_Canc> (221)
2

>  <Mouse_Male_NTP> (221)
ND

>  <ChemName> (221)
Proflavine Hydrochloride

>  <Rat_Male_NTP> (221)
ND

>  <Reference> (221)
NTP5

>  <Formula> (221)
C13H11N3.HCl

>  <SMILES> (221)
n1c3c(cc2c1cc(N)cc2)ccc(c3)N.Cl

>  <Rat_Female_NTP> (221)
ND

>  <CAS> (221)
952-23-8

>  <Mouse_Female_NTP> (221)
ND

>  <Synonyms> (221)
3,6-acridinediamine monohydrochloride; 3,6-diaminoacridine hydrochloride; 3,6-diaminoacridinium chloride; 3,6-diaminoacridine monohydrochloride; proflavine hydrochloride hemihydrate; proflavine monohydrochloride.

$$$$
222


 16 16  0  0  0  0  0  0  0  0999 V2000
    5.0906   -5.1517   -0.0172 C   0  0  0  0  0  0  0  0  0  0  0  0
    5.0904   -6.4863   -0.0086 C   0  0  0  0  0  0  0  0  0  0  0  0
    6.3661   -7.2190    0.0105 C   0  0  0  0  0  0  0  0  0  0  0  0
    7.6280   -6.4839    0.0199 C   0  0  0  0  0  0  0  0  0  0  0  0
    7.6294   -5.1537    0.0123 C   0  0  0  0  0  0  0  0  0  0  0  0
    6.3688   -4.4178   -0.0059 C   0  0  0  0  0  0  0  0  0  0  0  0
    6.3905   -3.1454   -0.0125 N   0  0  0  0  0  0  0  0  0  0  0  0
    6.3858   -8.4911    0.0185 N   0  0  0  0  0  0  0  0  0  0  0  0
    5.2650   -2.4500   -0.0295 O   0  0  0  0  0  0  0  0  0  0  0  0
    5.2592   -9.1855    0.0102 O   0  0  0  0  0  0  0  0  0  0  0  0
    4.2253   -4.6507   -0.0312 H   0  0  0  0  0  0  0  0  0  0  0  0
    4.2249   -6.9873   -0.0151 H   0  0  0  0  0  0  0  0  0  0  0  0
    8.4947   -6.9827    0.0320 H   0  0  0  0  0  0  0  0  0  0  0  0
    8.4969   -4.6562    0.0192 H   0  0  0  0  0  0  0  0  0  0  0  0
    5.4765   -1.4727   -0.0322 H   0  0  0  0  0  0  0  0  0  0  0  0
    5.4694  -10.1630    0.0186 H   0  0  0  0  0  0  0  0  0  0  0  0
  1  2  2  0  0  0  0
  1  6  1  0  0  0  0
  2  3  1  0  0  0  0
  3  4  1  0  0  0  0
  4  5  2  0  0  0  0
  5  6  1  0  0  0  0
  6  7  2  0  0  0  0
  3  8  2  0  0  0  0
  7  9  1  0  0  0  0
  8 10  1  0  0  0  0
  1 11  1  0  0  0  0
  2 12  1  0  0  0  0
  4 13  1  0  0  0  0
  5 14  1  0  0  0  0
  9 15  1  0  0  0  0
 10 16  1  0  0  0  0
M  END
>  <Substance ID> (222)
222

>  <Mouse_Female_Canc> (222)
1

>  <SAL> (222)
3

>  <Rat_Male_Canc> (222)
1

>  <TD50_Rat> (222)
106

>  <TD50_Mouse> (222)
NP

>  <Rat_Female_Canc> (222)
3

>  <Canc> (222)
3

>  <MolWeight> (222)
138.13

>  <Mouse_Male_Canc> (222)
1

>  <Mouse_Male_NTP> (222)
ND

>  <ChemName> (222)
para-Benzoquinone dioxime

>  <Rat_Male_NTP> (222)
ND

>  <Reference> (222)
NTP179

>  <Formula> (222)
C6H6N2O2

>  <SMILES> (222)
ON=C1C=CC(=NO)C=C1

>  <Rat_Female_NTP> (222)
ND

>  <CAS> (222)
105-11-3

>  <Mouse_Female_NTP> (222)
ND

>  <Synonyms> (222)
1,4-Benzoquinone dioxime; 1,4-cyclohexadienedione dioxime; 2,5-cyclohexadiene-1,4-dione dioxime; p-Benzoquinone dioxime, moistened with ca. 30% water; p-Quinone dioxime; actor q; dibenzo pqd; dioxime p-benzoquinone; G-M-F; PQD; QDO; quinone dioxime.

$$$$
223


 84 89  0  0  0  0  0  0  0  0999 V2000
   -2.8081    2.0667   -1.8100 C   0  0  0  0  0  0  0  0  0  1  0  0
   -2.0371    3.2200   -1.9704 C   0  0  0  0  0  0  0  0  0  2  0  0
   -2.6626    4.4889   -1.9991 C   0  0  0  0  0  0  0  0  0  3  0  0
   -4.0337    4.5344   -1.8526 C   0  0  0  0  0  0  0  0  0  4  0  0
   -4.8555    3.3680   -1.7137 C   0  0  0  0  0  0  0  0  0  5  0  0
   -4.2158    2.1400   -1.6738 C   0  0  0  0  0  0  0  0  0  6  0  0
   -1.9409    0.9933   -1.7774 N   0  0  0  0  0  0  0  0  0  7  0  0
   -0.6352    1.4464   -1.9131 C   0  0  0  0  0  0  0  0  0  8  0  0
   -0.6734    2.8128   -2.0352 C   0  0  0  0  0  0  0  0  0  9  0  0
    0.6612    0.6930   -1.8547 C   0  0  2  0  0  0  0  0  0 10  0  0
    1.7704    1.4964   -2.3619 N   0  0  0  0  0  0  0  0  0 11  0  0
    1.7902    2.8240   -1.7530 C   0  0  0  0  0  0  0  0  0 12  0  0
    0.5576    3.6506   -2.1635 C   0  0  0  0  0  0  0  0  0 13  0  0
    0.5725   -0.6639   -2.5710 C   0  0  0  0  0  0  0  0  0 14  0  0
    1.8829   -1.4716   -2.5005 C   0  0  1  0  0  0  0  0  0 15  0  0
    3.0480   -0.5515   -2.8993 C   0  0  1  0  0  0  0  0  0 16  0  0
    3.0252    0.7914   -2.1494 C   0  0  0  0  0  0  0  0  0 17  0  0
    2.1068   -2.2988   -1.2103 C   0  0  1  0  0  0  0  0  0 18  0  0
    3.5097   -2.9451   -1.1512 C   0  0  2  0  0  0  0  0  0 19  0  0
    4.6609   -1.9974   -1.5083 C   0  0  1  0  0  0  0  0  0 20  0  0
    4.3933   -1.2910   -2.8392 C   0  0  0  0  0  0  0  0  0 21  0  0
    1.7079   -1.6375    0.1084 C   0  0  0  0  0  0  0  0  0 22  0  0
    4.8814   -1.0842   -0.4483 O   0  0  0  0  0  0  0  0  0 23  0  0
    5.9175   -0.1981   -0.5384 C   0  0  0  0  0  0  0  0  0 24  0  0
    5.8538    1.1252    0.1445 C   0  0  0  0  0  0  0  0  0 25  0  0
    4.8679    1.3753    1.1052 C   0  0  0  0  0  0  0  0  0 26  0  0
    4.7605    2.6068    1.7587 C   0  0  0  0  0  0  0  0  0 27  0  0
    5.7236    3.5968    1.4628 C   0  0  0  0  0  0  0  0  0 28  0  0
    6.6076    3.4280    0.3798 C   0  0  0  0  0  0  0  0  0 29  0  0
    6.7315    2.1563   -0.1940 C   0  0  0  0  0  0  0  0  0 30  0  0
    5.6175    4.8302    2.0561 O   0  0  0  0  0  0  0  0  0 31  0  0
    7.5173    4.4043    0.0631 O   0  0  0  0  0  0  0  0  0 32  0  0
    6.8592   -0.4157   -1.2957 O   0  0  0  0  0  0  0  0  0 33  0  0
    3.5689   -4.0432   -2.0612 O   0  0  0  0  0  0  0  0  0 34  0  0
    3.8197    2.8838    2.7224 O   0  0  0  0  0  0  0  0  0 35  0  0
    0.3800   -1.7989    0.3713 O   0  0  0  0  0  0  0  0  0 36  0  0
    2.4711   -1.0798    0.8615 O   0  0  0  0  0  0  0  0  0 37  0  0
   -6.2119    3.3962   -1.5026 O   0  0  0  0  0  0  0  0  0 38  0  0
    6.4255    4.9708    3.2089 C   0  0  0  0  0  0  0  0  0 39  0  0
    7.0576    5.2946   -0.9362 C   0  0  0  0  0  0  0  0  0 40  0  0
    3.1930   -5.2800   -1.4792 C   0  0  0  0  0  0  0  0  0 41  0  0
    2.9318    1.8587    3.1252 C   0  0  0  0  0  0  0  0  0 42  0  0
   -0.0930   -1.2254    1.5742 C   0  0  0  0  0  0  0  0  0 43  0  0
   -6.7934    4.6117   -1.0727 C   0  0  0  0  0  0  0  0  0 44  0  0
   -2.0639    5.4069   -2.1034 H   0  0  0  0  0  0  0  0  0 45  0  0
   -4.4917    5.5361   -1.8482 H   0  0  0  0  0  0  0  0  0 46  0  0
   -4.7905    1.2148   -1.5109 H   0  0  0  0  0  0  0  0  0 47  0  0
   -2.2243   -0.0043   -1.6443 H   0  0  0  0  0  0  0  0  0 48  0  0
    0.8139    0.5233   -0.7635 H   0  0  0  0  0  0  0  0  0 49  0  0
    2.7021    3.3843   -2.0711 H   0  0  0  0  0  0  0  0  0 50  0  0
    1.8365    2.7315   -0.6409 H   0  0  0  0  0  0  0  0  0 51  0  0
    0.4697    4.5661   -1.5341 H   0  0  0  0  0  0  0  0  0 52  0  0
    0.6454    3.9642   -3.2306 H   0  0  0  0  0  0  0  0  0 53  0  0
    0.3331   -0.4542   -3.6422 H   0  0  0  0  0  0  0  0  0 54  0  0
   -0.2726   -1.2762   -2.1814 H   0  0  0  0  0  0  0  0  0 55  0  0
    1.8179   -2.2433   -3.3150 H   0  0  0  0  0  0  0  0  0 56  0  0
    2.8927   -0.2734   -3.9767 H   0  0  0  0  0  0  0  0  0 57  0  0
    3.1708    0.6439   -1.0592 H   0  0  0  0  0  0  0  0  0 58  0  0
    3.8746    1.4158   -2.5162 H   0  0  0  0  0  0  0  0  0 59  0  0
    1.3773   -3.1475   -1.2733 H   0  0  0  0  0  0  0  0  0 60  0  0
    3.7051   -3.3343   -0.1229 H   0  0  0  0  0  0  0  0  0 61  0  0
    5.5936   -2.6092   -1.5972 H   0  0  0  0  0  0  0  0  0 62  0  0
    5.2147   -0.5938   -3.1175 H   0  0  0  0  0  0  0  0  0 63  0  0
    4.3945   -2.0708   -3.6395 H   0  0  0  0  0  0  0  0  0 64  0  0
    4.1778    0.5604    1.3544 H   0  0  0  0  0  0  0  0  0 65  0  0
    7.5158    1.9956   -0.9508 H   0  0  0  0  0  0  0  0  0 66  0  0
    6.2734    5.9950    3.6166 H   0  0  0  0  0  0  0  0  0 67  0  0
    7.4974    4.8393    2.9415 H   0  0  0  0  0  0  0  0  0 68  0  0
    6.1256    4.2229    3.9767 H   0  0  0  0  0  0  0  0  0 69  0  0
    7.8565    6.0457   -1.1264 H   0  0  0  0  0  0  0  0  0 70  0  0
    6.1393    5.8185   -0.5889 H   0  0  0  0  0  0  0  0  0 71  0  0
    6.8492    4.7347   -1.8753 H   0  0  0  0  0  0  0  0  0 72  0  0
    3.1721   -6.0457   -2.2862 H   0  0  0  0  0  0  0  0  0 73  0  0
    2.1829   -5.2162   -1.0205 H   0  0  0  0  0  0  0  0  0 74  0  0
    3.9477   -5.5855   -0.7202 H   0  0  0  0  0  0  0  0  0 75  0  0
    2.2739    2.2739    3.9214 H   0  0  0  0  0  0  0  0  0 76  0  0
    3.4976    1.0027    3.5560 H   0  0  0  0  0  0  0  0  0 77  0  0
    2.2872    1.5475    2.2730 H   0  0  0  0  0  0  0  0  0 78  0  0
   -1.1893   -1.4100    1.6344 H   0  0  0  0  0  0  0  0  0 79  0  0
    0.0825   -0.1262    1.5716 H   0  0  0  0  0  0  0  0  0 80  0  0
    0.4021   -1.7056    2.4474 H   0  0  0  0  0  0  0  0  0 81  0  0
   -7.8565    4.4077   -0.8144 H   0  0  0  0  0  0  0  0  0 82  0  0
   -6.7737    5.3631   -1.8926 H   0  0  0  0  0  0  0  0  0 83  0  0
   -6.2751    4.9830   -0.1604 H   0  0  0  0  0  0  0  0  0 84  0  0
  1  2  2  0  0  0  0
  1  6  1  0  0  0  0
  1  7  1  0  0  0  0
  2  3  1  0  0  0  0
  2  9  1  0  0  0  0
  3  4  2  0  0  0  0
  3 45  1  0  0  0  0
  4  5  1  0  0  0  0
  4 46  1  0  0  0  0
  5  6  2  0  0  0  0
  5 38  1  0  0  0  0
  6 47  1  0  0  0  0
  7  8  1  0  0  0  0
  7 48  1  0  0  0  0
  8  9  2  0  0  0  0
  8 10  1  0  0  0  0
  9 13  1  0  0  0  0
 10 11  1  0  0  0  0
 10 14  1  6  0  0  0
 10 49  1  1  0  0  0
 11 12  1  0  0  0  0
 11 17  1  0  0  0  0
 12 13  1  0  0  0  0
 12 50  1  0  0  0  0
 12 51  1  1  0  0  0
 13 52  1  1  0  0  0
 13 53  1  6  0  0  0
 14 15  1  0  0  0  0
 14 54  1  6  0  0  0
 14 55  1  0  0  0  0
 15 16  1  0  0  0  0
 15 18  1  1  0  0  0
 15 56  1  6  0  0  0
 16 17  1  1  0  0  0
 16 21  1  0  0  0  0
 16 57  1  6  0  0  0
 17 58  1  1  0  0  0
 17 59  1  0  0  0  0
 18 19  1  0  0  0  0
 18 22  1  1  0  0  0
 18 60  1  0  0  0  0
 19 20  1  0  0  0  0
 19 34  1  6  0  0  0
 19 61  1  1  0  0  0
 20 21  1  6  0  0  0
 20 23  1  1  0  0  0
 20 62  1  0  0  0  0
 21 63  1  0  0  0  0
 21 64  1  6  0  0  0
 22 36  1  0  0  0  0
 22 37  2  0  0  0  0
 23 24  1  0  0  0  0
 24 25  1  1  0  0  0
 24 33  2  0  0  0  0
 25 26  2  0  0  0  0
 25 30  1  0  0  0  0
 26 27  1  1  0  0  0
 26 65  1  0  0  0  0
 27 28  2  0  0  0  0
 27 35  1  1  0  0  0
 28 29  1  6  0  0  0
 28 31  1  0  0  0  0
 29 30  2  0  0  0  0
 29 32  1  0  0  0  0
 30 66  1  6  0  0  0
 31 39  1  1  0  0  0
 32 40  1  6  0  0  0
 34 41  1  0  0  0  0
 35 42  1  0  0  0  0
 36 43  1  1  0  0  0
 38 44  1  0  0  0  0
 39 67  1  0  0  0  0
 39 68  1  0  0  0  0
 39 69  1  1  0  0  0
 40 70  1  0  0  0  0
 40 71  1  0  0  0  0
 40 72  1  6  0  0  0
 41 73  1  6  0  0  0
 41 74  1  0  0  0  0
 41 75  1  1  0  0  0
 42 76  1  1  0  0  0
 42 77  1  0  0  0  0
 42 78  1  6  0  0  0
 43 79  1  0  0  0  0
 43 80  1  0  0  0  0
 43 81  1  1  0  0  0
 44 82  1  0  0  0  0
 44 83  1  6  0  0  0
 44 84  1  1  0  0  0
M  END
>  <Substance ID> (223)
223

>  <Mouse_Female_Canc> (223)
3

>  <SAL> (223)
1

>  <Rat_Male_Canc> (223)
3

>  <TD50_Rat> (223)
0.306

>  <TD50_Mouse> (223)
5.02

>  <Rat_Female_Canc> (223)
1

>  <Canc> (223)
3

>  <MolWeight> (223)
608.69

>  <Mouse_Male_Canc> (223)
3

>  <Mouse_Male_NTP> (223)
ND

>  <ChemName> (223)
Reserpine

>  <Rat_Male_NTP> (223)
ND

>  <Reference> (223)
NTP193

>  <Formula> (223)
C33H40N2O9

>  <SMILES> (223)
O=C(O[C@@H3])[C@@H]5[C@@H](O[C@@H3])[C@H](OC(=O)c1cc(O[C@@H3])c(O[C@@H3])c(O[C@@H3])c1)[C@H2][C@@H]6[C@H2]N4[C@@H2][C@H2]c3c2ccc(O[C@@H3])cc2nc3[C@H]4[C@@H2][C@H]56

>  <Rat_Female_NTP> (223)
ND

>  <CAS> (223)
50-55-5

>  <Mouse_Female_NTP> (223)
ND

>  <Synonyms> (223)
orthoserpina; 3,4,5-trimethoxybenzoyl methyl reserpate; butiserpazide-25; cardioserpin; carditivo; carrserp; crystoserpine; darebon; deserpine; eberpine; ebserpine; elfanex; elserpine; enipresser; escaspere; eserpine; eskaserp; gilucard; H 520; helfoserpin; hexaplin; hiserpia; hydromox r; hydropres; hypercal b; hypertane forte; hypertensan; idoserp; interpina; kitine; klimanosid; lemiserp; loweserp; marnitension simple; maviserpin; mayserpine; mephaserpin; methyl 11,17alpha-dimethoxy-18beta-(3,4,5-trimethoxybenzoyloxy)-3beta,20alpha-yohimbane-16beta-carboxylate; methyl o-(3,4,5-trimethoxybenzoyl)reserpate; Methyl reserpate 3,4,5-trimethoxybenzoate (ester); methylreserpate 3,4,5-trimethoxybenzoic acid; methylreserpate 3,4,5-trimethoxybenzoic acid ester; modenol; naquival; nembuserpin; neoserfin; neo-serp; neoslowten; perskleran; pressimedin; purserpine; quiescin; raudixin; raucap; raugal; raulen; rauloydin; raumorine; raunorine; raupasil; raupoid; raurine; rausan; rausedil; rau-sed; rausedyl; rauserpin; rauserpol; rausingle; rautrin; rauwilid; rauwiloid; rauwipur; rauwoleaf; recipin; Resaltex; R-E-S; resedrex; resedril; reserbal; resercaps; resercen; reserfia; reserlor; reserp; reserpamed; reserpic acid methyl ester 3,4,5-trimethoxybenzoate (ester); reserpene; reserpex; reserpil; reserpina; reserpoid; reserpur; reserutin; residine; resine; resocalm; Resperine; respital; restran; rezerpin; riserpa; rivasin; Roxel; roxinoid; salupres; sandril; sandron; sedaraupin; sedaraupina; sedserp; seominal; serfin; serfolia; serolfia; serpalan; serpaloid; serpanray; Serpasil; serpasol; serpate; serpazol; serpen; serpena; serpentil; serpentina; serpicon; serpiloid; serpilum; serpine; serpivite; serpogen; serpoid; serpone; sertabs; sertens; sertina; sk-reserpine; solfo serpine; supergan; tempo-reserpina; temposerpine; tensanyl; tensional; tensionorme; terbolan; transerpin; triserpin; Trimethoxybenzoyl methyl reserpate; T-serp; tylandril; unilord; unitensen; veriloid; vio-serpine; VIXO; V-serp; yohimban-16-carboxylic acid derivative of benz[g]indolo[2,3-a]quinolizine; gammaserpine; (3beta,16beta,17alpha,18beta,20alpha)-11,17-dimethoxy-18-[(3,4,5-trimethoxybenzoyl)oxy]yohimban-16-carboxylic acid methyl ester; 3beta,20alpha-yohimban-16beta-carboxylic acid, 18beta-hydroxy-11,17alpha-dimethoxy-, methyl ester, 3,4,5-trimethoxybenzoate (ester); metatensin; abesta; abicol; adelfan; adelphane; adelphin; alkarau; alkaserp; alserin; anquil; apoplon; apsical; ascoserp; austrapine; banasil; banisil; benazyl; bendigon; bioserpine; diupres; brinderdin; briserine.

$$$$
224


 16 16  0  0  0  0  0  0  0  0999 V2000
    4.1535  -32.4918   -0.0007 C   0  0  0  0  0  0  0  0  0  0  0  0
    4.3620  -33.8070   -0.0001 C   0  0  0  0  0  0  0  0  0  0  0  0
    6.7635  -33.4933    0.0006 C   0  0  0  0  0  0  0  0  0  0  0  0
    6.5347  -32.0479    0.0007 C   0  0  0  0  0  0  0  0  0  0  0  0
    5.7286  -34.3315    0.0003 C   0  0  0  0  0  0  0  0  0  0  0  0
    5.2914  -31.5703    0.0003 C   0  0  0  0  0  0  0  0  0  0  0  0
    5.0627  -30.1261    0.0006 C   0  0  0  0  0  0  0  0  0  0  0  0
    6.0968  -29.2876    0.0005 C   0  0  0  0  0  0  0  0  0  0  0  0
    3.2199  -32.1335   -0.0017 H   0  0  0  0  0  0  0  0  0  0  0  0
    3.5850  -34.4364   -0.0001 H   0  0  0  0  0  0  0  0  0  0  0  0
    7.6971  -33.8516    0.0007 H   0  0  0  0  0  0  0  0  0  0  0  0
    7.3120  -31.4187    0.0011 H   0  0  0  0  0  0  0  0  0  0  0  0
    5.8851  -35.3192    0.0004 H   0  0  0  0  0  0  0  0  0  0  0  0
    4.1290  -29.7680    0.0008 H   0  0  0  0  0  0  0  0  0  0  0  0
    5.9397  -28.3000    0.0008 H   0  0  0  0  0  0  0  0  0  0  0  0
    7.0306  -29.6453    0.0003 H   0  0  0  0  0  0  0  0  0  0  0  0
  1  2  2  0  0  0  0
  3  4  1  0  0  0  0
  1  6  1  0  0  0  0
  2  5  1  0  0  0  0
  5  3  2  0  0  0  0
  4  6  2  0  0  0  0
  6  7  1  0  0  0  0
  7  8  2  0  0  0  0
  1  9  1  0  0  0  0
  2 10  1  0  0  0  0
  3 11  1  0  0  0  0
  4 12  1  0  0  0  0
  5 13  1  0  0  0  0
  7 14  1  0  0  0  0
  8 15  1  0  0  0  0
  8 16  1  0  0  0  0
M  END
>  <Substance ID> (224)
224

>  <Mouse_Female_Canc> (224)
3

>  <SAL> (224)
1

>  <Rat_Male_Canc> (224)
1

>  <TD50_Rat> (224)
NP

>  <TD50_Mouse> (224)
ND

>  <Rat_Female_Canc> (224)
1

>  <Canc> (224)
3

>  <MolWeight> (224)
104.15

>  <Mouse_Male_Canc> (224)
1

>  <Mouse_Male_NTP> (224)
ND

>  <ChemName> (224)
Styrene

>  <Rat_Male_NTP> (224)
ND

>  <Reference> (224)
IARC & NTP185

>  <Formula> (224)
C8H8

>  <SMILES> (224)
C=CC1=CC=CC=C1

>  <Rat_Female_NTP> (224)
ND

>  <CAS> (224)
100-42-5

>  <Mouse_Female_NTP> (224)
ND

>  <Synonyms> (224)
Annamene; diarex hf 77; Cinnamene; cinnamenol; Cinnamol; ethenylbenzene; phenethylene; phenylethene; Phenylethylene; STYRENE MONOMER; Styrol; Styrolene; styron; styropol; styropor; Vinyl benzene; vinylbenzol.

$$$$
225


 23 22  0  0  0  0  0  0  0  0999 V2000
    4.0015  -39.0781    1.2391 O   0  0  0  0  0  0  0  0  0  0  0  0
    4.1347  -39.4117    0.0565 C   0  0  0  0  0  0  0  0  0  0  0  0
    3.0181  -39.7513   -0.7011 O   0  0  0  0  0  0  0  0  0  0  0  0
    5.4937  -39.4593   -0.5583 C   0  0  0  0  0  0  0  0  0  0  0  0
    6.5523  -39.4501    0.5509 C   0  0  0  0  0  0  0  0  0  0  0  0
    7.9019  -39.4678   -0.0876 C   0  0  0  0  0  0  0  0  0  0  0  0
    8.0192  -39.0904   -1.2570 O   0  0  0  0  0  0  0  0  0  0  0  0
    9.0000  -39.9865    0.6406 N   0  0  0  0  0  0  0  0  0  0  0  0
   10.2751  -39.9967    0.1879 N   0  0  0  0  0  0  0  0  0  0  0  0
   10.7817  -38.9895   -0.7126 C   0  0  0  0  0  0  0  0  0  0  0  0
   11.1584  -41.0290    0.6408 C   0  0  0  0  0  0  0  0  0  0  0  0
    3.3047  -39.9937   -1.6280 H   0  0  0  0  0  0  0  0  0  0  0  0
    5.5857  -40.2943   -1.1008 H   0  0  0  0  0  0  0  0  0  0  0  0
    5.6214  -38.6621   -1.1483 H   0  0  0  0  0  0  0  0  0  0  0  0
    6.4522  -38.6248    1.1066 H   0  0  0  0  0  0  0  0  0  0  0  0
    6.4419  -40.2579    1.1300 H   0  0  0  0  0  0  0  0  0  0  0  0
    8.8219  -40.3696    1.5469 H   0  0  0  0  0  0  0  0  0  0  0  0
   11.7406  -39.1809   -0.9221 H   0  0  0  0  0  0  0  0  0  0  0  0
   10.7082  -38.0897   -0.2824 H   0  0  0  0  0  0  0  0  0  0  0  0
   10.2480  -38.9989   -1.5582 H   0  0  0  0  0  0  0  0  0  0  0  0
   12.0585  -40.9051    0.2232 H   0  0  0  0  0  0  0  0  0  0  0  0
   10.7904  -41.9215    0.3798 H   0  0  0  0  0  0  0  0  0  0  0  0
   11.2439  -40.9823    1.6361 H   0  0  0  0  0  0  0  0  0  0  0  0
  1  2  2  0  0  0  0
  2  3  1  0  0  0  0
  2  4  1  0  0  0  0
  4  5  1  0  0  0  0
  5  6  1  0  0  0  0
  6  7  2  0  0  0  0
  6  8  1  0  0  0  0
  8  9  1  0  0  0  0
  9 10  1  0  0  0  0
  9 11  1  0  0  0  0
  3 12  1  0  0  0  0
  4 13  1  0  0  0  0
  4 14  1  0  0  0  0
  5 15  1  0  0  0  0
  5 16  1  0  0  0  0
  8 17  1  0  0  0  0
 10 18  1  0  0  0  0
 10 19  1  0  0  0  0
 10 20  1  0  0  0  0
 11 21  1  0  0  0  0
 11 22  1  0  0  0  0
 11 23  1  0  0  0  0
M  END
>  <Substance ID> (225)
225

>  <Mouse_Female_Canc> (225)
1

>  <SAL> (225)
1

>  <Rat_Male_Canc> (225)
1

>  <TD50_Rat> (225)
2500

>  <TD50_Mouse> (225)
NP

>  <Rat_Female_Canc> (225)
3

>  <Canc> (225)
3

>  <MolWeight> (225)
160.17

>  <Mouse_Male_Canc> (225)
2

>  <Mouse_Male_NTP> (225)
ND

>  <ChemName> (225)
Succinic acid 2,2-dimethylhydrazide

>  <Rat_Male_NTP> (225)
ND

>  <Reference> (225)
NTP83

>  <Formula> (225)
C6H12N2O3

>  <SMILES> (225)
O=C(CCC(=O)O)NN(C)C

>  <Rat_Female_NTP> (225)
ND

>  <CAS> (225)
1596-84-5

>  <Mouse_Female_NTP> (225)
ND

>  <Synonyms> (225)
Alar; alar-85; aminozide; B 995; diaminozide; Dimas; B-NINE; butanedioic acid mono(2,2-dimethylhydrazide); Daminozide; DAMINOZIDE (DIMETHYLAMINOSUCCINAMIC ACID); DMASA; Kylar; N-dimethylamino-beta-carbamyl propionic acid; N-(dimethylamino)succinamic acid; NINE; SADH; succinic acid mono(2,2-dimethylhydrazide).

$$$$
226


 26 25  0  0  0  0  0  0  0  0999 V2000
    5.4121  -46.9338    0.1346 N   0  0  0  0  0  0  0  0  0  0  0  0
    4.3902  -45.8333    0.3938 C   0  0  0  0  0  0  0  0  0  0  0  0
    5.1936  -48.4089    0.4088 C   0  0  0  0  0  0  0  0  0  0  0  0
    3.0402  -45.9280   -0.3627 C   0  0  0  0  0  0  0  0  0  0  0  0
    3.9746  -49.0795   -0.2765 C   0  0  0  0  0  0  0  0  0  0  0  0
    6.7717  -46.4906   -0.0197 C   0  0  0  0  0  0  0  0  0  0  0  0
    8.0963  -47.6736   -0.0784 S   0  0  0  0  0  0  0  0  0  0  0  0
    7.0923  -44.9731   -0.1132 S   0  0  0  0  0  0  0  0  0  0  0  0
    9.6649  -46.7622   -0.0542 C   0  0  0  0  0  0  0  0  0  0  0  0
   10.8229  -47.7166   -0.0230 C   0  0  0  0  0  0  0  0  0  0  0  0
   12.0686  -47.2455    0.0017 C   0  0  0  0  0  0  0  0  0  0  0  0
   10.5440  -49.4209   -0.0114 Cl  0  0  0  0  0  0  0  0  0  0  0  0
    4.1872  -45.8359    1.3729 H   0  0  0  0  0  0  0  0  0  0  0  0
    4.8150  -44.9633    0.1432 H   0  0  0  0  0  0  0  0  0  0  0  0
    6.0139  -48.8960    0.1089 H   0  0  0  0  0  0  0  0  0  0  0  0
    5.0825  -48.5188    1.3965 H   0  0  0  0  0  0  0  0  0  0  0  0
    2.4605  -45.1536   -0.1093 H   0  0  0  0  0  0  0  0  0  0  0  0
    2.5802  -46.7819   -0.1191 H   0  0  0  0  0  0  0  0  0  0  0  0
    3.2079  -45.9096   -1.3484 H   0  0  0  0  0  0  0  0  0  0  0  0
    3.9374  -50.0454   -0.0204 H   0  0  0  0  0  0  0  0  0  0  0  0
    4.0653  -49.0017   -1.2694 H   0  0  0  0  0  0  0  0  0  0  0  0
    3.1342  -48.6245    0.0178 H   0  0  0  0  0  0  0  0  0  0  0  0
    9.7284  -46.1936   -0.8744 H   0  0  0  0  0  0  0  0  0  0  0  0
    9.6954  -46.1802    0.7585 H   0  0  0  0  0  0  0  0  0  0  0  0
   12.8423  -47.8787    0.0225 H   0  0  0  0  0  0  0  0  0  0  0  0
   12.2301  -46.2586   -0.0006 H   0  0  0  0  0  0  0  0  0  0  0  0
  1  2  1  0  0  0  0
  1  3  1  0  0  0  0
  2  4  1  0  0  0  0
  3  5  1  0  0  0  0
  1  6  1  0  0  0  0
  6  7  1  0  0  0  0
  6  8  2  0  0  0  0
  7  9  1  0  0  0  0
  9 10  1  0  0  0  0
 10 11  2  0  0  0  0
 10 12  1  0  0  0  0
  2 13  1  0  0  0  0
  2 14  1  0  0  0  0
  3 15  1  0  0  0  0
  3 16  1  0  0  0  0
  4 17  1  0  0  0  0
  4 18  1  0  0  0  0
  4 19  1  0  0  0  0
  5 20  1  0  0  0  0
  5 21  1  0  0  0  0
  5 22  1  0  0  0  0
  9 23  1  0  0  0  0
  9 24  1  0  0  0  0
 11 25  1  0  0  0  0
 11 26  1  0  0  0  0
M  END
>  <Substance ID> (226)
226

>  <Mouse_Female_Canc> (226)
3

>  <SAL> (226)
3

>  <Rat_Male_Canc> (226)
3

>  <TD50_Rat> (226)
26.1

>  <TD50_Mouse> (226)
42.2

>  <Rat_Female_Canc> (226)
3

>  <Canc> (226)
3

>  <MolWeight> (226)
223.78

>  <Mouse_Male_Canc> (226)
3

>  <Mouse_Male_NTP> (226)
ND

>  <ChemName> (226)
Sulfallate 

>  <Rat_Male_NTP> (226)
ND

>  <Reference> (226)
NTP115

>  <Formula> (226)
C8H14ClNS2

>  <SMILES> (226)
S=C(N(CC)CC)SCC(=C)Cl

>  <Rat_Female_NTP> (226)
ND

>  <CAS> (226)
95-06-7

>  <Mouse_Female_NTP> (226)
ND

>  <Synonyms> (226)
2-chloro-2-propene-1-thiol diethyldithiocarbamate; 2-chloro-2-propenyl diethylcarbamodithioate; 2-Chloroallyl diethyldithiocarbamate; 2-chloroallyl N,N-diethyldithiocarbamate; diethyldithiocarbamic acid 2-chloroallyl ester; carbamodithioic acid, diethyl-, 2-chloro-2-propanyl ester; CDEC; cp 4572; cp 4,742; thioallate; vegadex; Vegadex 20G; Vegadex 4EC; vegadex super; vegedex.

$$$$
227


 31 32  0  0  0  0  0  0  0  0999 V2000
   10.7562  -56.7078   -0.1718 C   0  0  0  0  0  0  0  0  0  0  0  0
   11.0800  -57.9666    0.1081 C   0  0  0  0  0  0  0  0  0  0  0  0
   12.4773  -58.0352    0.0512 C   0  0  0  0  0  0  0  0  0  0  0  0
   12.9530  -56.8950   -0.2451 N   0  0  0  0  0  0  0  0  0  0  0  0
   11.9569  -55.9520   -0.4198 O   0  0  0  0  0  0  0  0  0  0  0  0
    3.4543  -56.3210   -0.0225 C   0  0  0  0  0  0  0  0  0  0  0  0
    3.9972  -57.5368    0.0312 C   0  0  0  0  0  0  0  0  0  0  0  0
    6.2269  -56.6046    0.2084 C   0  0  0  0  0  0  0  0  0  0  0  0
    5.6241  -55.2620    0.1517 C   0  0  0  0  0  0  0  0  0  0  0  0
    5.4468  -57.6815    0.1530 C   0  0  0  0  0  0  0  0  0  0  0  0
    4.3050  -55.1301    0.0413 C   0  0  0  0  0  0  0  0  0  0  0  0
    2.0713  -56.1852   -0.1424 N   0  0  0  0  0  0  0  0  0  0  0  0
    7.9862  -56.8289    0.3311 S   0  0  0  0  0  0  0  0  0  0  0  0
    9.4473  -56.1068   -0.2351 N   0  0  0  0  0  0  0  0  0  0  0  0
    7.7540  -55.3307    0.3116 O   0  0  0  0  0  0  0  0  0  0  0  0
    7.8967  -57.7321   -0.8845 O   0  0  0  0  0  0  0  0  0  0  0  0
   13.2915  -59.2690    0.3057 C   0  0  0  0  0  0  0  0  0  0  0  0
   10.1855  -59.1370    0.4272 C   0  0  0  0  0  0  0  0  0  0  0  0
    3.4144  -58.3483   -0.0117 H   0  0  0  0  0  0  0  0  0  0  0  0
    6.2061  -54.4500    0.1962 H   0  0  0  0  0  0  0  0  0  0  0  0
    5.8541  -58.5938    0.1948 H   0  0  0  0  0  0  0  0  0  0  0  0
    3.8946  -54.2190    0.0018 H   0  0  0  0  0  0  0  0  0  0  0  0
    1.6600  -55.2746   -0.1831 H   0  0  0  0  0  0  0  0  0  0  0  0
    1.4910  -56.9983   -0.1878 H   0  0  0  0  0  0  0  0  0  0  0  0
    9.3806  -55.1954   -0.6411 H   0  0  0  0  0  0  0  0  0  0  0  0
   12.6823  -60.0329    0.5187 H   0  0  0  0  0  0  0  0  0  0  0  0
   13.9073  -59.1093    1.0773 H   0  0  0  0  0  0  0  0  0  0  0  0
   13.8284  -59.4886   -0.5089 H   0  0  0  0  0  0  0  0  0  0  0  0
   10.7447  -59.9497    0.5906 H   0  0  0  0  0  0  0  0  0  0  0  0
    9.5696  -59.3060   -0.3424 H   0  0  0  0  0  0  0  0  0  0  0  0
    9.6479  -58.9329    1.2453 H   0  0  0  0  0  0  0  0  0  0  0  0
  1  2  2  0  0  0  0
  3  4  2  0  0  0  0
  4  5  1  0  0  0  0
  5  1  1  0  0  0  0
  2  3  1  0  0  0  0
  6  7  2  0  0  0  0
  8  9  1  0  0  0  0
  6 11  1  0  0  0  0
  7 10  1  0  0  0  0
 10  8  2  0  0  0  0
  9 11  2  0  0  0  0
  6 12  1  0  0  0  0
  8 13  1  0  0  0  0
 13 14  1  0  0  0  0
 13 15  2  0  0  0  0
 13 16  2  0  0  0  0
 14  1  1  0  0  0  0
  3 17  1  0  0  0  0
  2 18  1  0  0  0  0
  7 19  1  0  0  0  0
  9 20  1  0  0  0  0
 10 21  1  0  0  0  0
 11 22  1  0  0  0  0
 12 23  1  0  0  0  0
 12 24  1  0  0  0  0
 14 25  1  0  0  0  0
 17 26  1  0  0  0  0
 17 27  1  0  0  0  0
 17 28  1  0  0  0  0
 18 29  1  0  0  0  0
 18 30  1  0  0  0  0
 18 31  1  0  0  0  0
M  END
>  <Substance ID> (227)
227

>  <Mouse_Female_Canc> (227)
1

>  <SAL> (227)
1

>  <Rat_Male_Canc> (227)
1

>  <TD50_Rat> (227)
NP

>  <TD50_Mouse> (227)
NP

>  <Rat_Female_Canc> (227)
1

>  <Canc> (227)
1

>  <MolWeight> (227)
267.30

>  <Mouse_Male_Canc> (227)
1

>  <Mouse_Male_NTP> (227)
ND

>  <ChemName> (227)
Sulfisoxazole

>  <Rat_Male_NTP> (227)
ND

>  <Reference> (227)
NTP138

>  <Formula> (227)
C11H13N3O3S

>  <SMILES> (227)
O=S(=O)(C1=CC=C(C=C1)N)NC2=C(C(=NO2)C)C

>  <Rat_Female_NTP> (227)
ND

>  <CAS> (227)
127-69-5

>  <Mouse_Female_NTP> (227)
ND

>  <Synonyms> (227)
3,4-dimethyl-5-sulfanilamidoisoxazole; 3,4-dimethylisoaxazole-5-sulfanilimide; 4-amino-N-(3,4-dimethyl-5-isoxazolyl)benzenesulfonamide; 5-(p-aminobenzenesulfonamido)-3,4-dimethylisoxazole; 5-(4-aminophenylsulfonamido)-3,4-dimethylisoxazole; 5-Sulfanilamido-3,4-dimethyl-isoxazole; entusil; Gantrisin; N(sup 1)-(3,4-dimethyl-5-isoxazolyl)-sulfanilamide; roxosul; SK-Soxazole; soxisol; SOXO; Sulfafurazole; Sulfisoxazole - Carc.; sulfoxol; urisoxin; urogan; US-67.

$$$$
228


  8  7  0  0  0  0  0  0  0  0999 V2000
    3.8956  -65.7652   -0.3242 Cl  0  0  0  0  0  0  0  0  0  0  0  0
    4.9980  -64.3870   -0.4039 C   0  0  0  0  0  0  0  0  0  0  0  0
    6.2703  -64.7008    0.4033 C   0  0  0  0  0  0  0  0  0  0  0  0
    7.3727  -63.3226    0.3236 Cl  0  0  0  0  0  0  0  0  0  0  0  0
    4.2083  -62.9593    0.2738 Cl  0  0  0  0  0  0  0  0  0  0  0  0
    7.0600  -66.1285   -0.2744 Cl  0  0  0  0  0  0  0  0  0  0  0  0
    5.2424  -64.2110   -1.3575 H   0  0  0  0  0  0  0  0  0  0  0  0
    6.0259  -64.8768    1.3569 H   0  0  0  0  0  0  0  0  0  0  0  0
  1  2  1  0  0  0  0
  2  3  1  0  0  0  0
  3  4  1  0  0  0  0
  2  5  1  0  0  0  0
  3  6  1  0  0  0  0
  2  7  1  0  0  0  0
  3  8  1  0  0  0  0
M  END
>  <Substance ID> (228)
228

>  <Mouse_Female_Canc> (228)
3

>  <SAL> (228)
1

>  <Rat_Male_Canc> (228)
2

>  <TD50_Rat> (228)
NP

>  <TD50_Mouse> (228)
38.30

>  <Rat_Female_Canc> (228)
1

>  <Canc> (228)
3

>  <MolWeight> (228)
167.85

>  <Mouse_Male_Canc> (228)
3

>  <Mouse_Male_NTP> (228)
ND

>  <ChemName> (228)
1,1,2,2-Tetrachloroethane

>  <Rat_Male_NTP> (228)
ND

>  <Reference> (228)
NTP27

>  <Formula> (228)
C2H2Cl4

>  <SMILES> (228)
ClC(C(Cl)Cl)Cl

>  <Rat_Female_NTP> (228)
ND

>  <CAS> (228)
79-34-5

>  <Mouse_Female_NTP> (228)
ND

>  <Synonyms> (228)
1,1-dichloro-2,2-dichloroethane; acetosol; acetylene tetrachloride; Dichloro 2,2 dichloroethane; Bonoform; Cellon; symmetrical tetrachloroethane; sym-Tetrachloroethane; Tetrachloroethane; Tetrachloroethane, 1,1,2,2-; westron.

$$$$
229


  6  5  0  0  0  0  0  0  0  0999 V2000
    2.5610  -74.0525    0.2362 Cl  0  0  0  0  0  0  0  0  0  0  0  0
    3.5282  -72.6364    0.0251 C   0  0  0  0  0  0  0  0  0  0  0  0
    4.8546  -72.7368   -0.0250 C   0  0  0  0  0  0  0  0  0  0  0  0
    5.8213  -71.3206   -0.2417 Cl  0  0  0  0  0  0  0  0  0  0  0  0
    2.7737  -71.0876   -0.1210 Cl  0  0  0  0  0  0  0  0  0  0  0  0
    5.6102  -74.2835    0.1267 Cl  0  0  0  0  0  0  0  0  0  0  0  0
  1  2  1  0  0  0  0
  2  3  2  0  0  0  0
  3  4  1  0  0  0  0
  2  5  1  0  0  0  0
  3  6  1  0  0  0  0
M  END
>  <Substance ID> (229)
229

>  <Mouse_Female_Canc> (229)
3

>  <SAL> (229)
1

>  <Rat_Male_Canc> (229)
3

>  <TD50_Rat> (229)
101

>  <TD50_Mouse> (229)
126

>  <Rat_Female_Canc> (229)
3

>  <Canc> (229)
3

>  <MolWeight> (229)
165.83

>  <Mouse_Male_Canc> (229)
3

>  <Mouse_Male_NTP> (229)
CE

>  <ChemName> (229)
Tetrachloroethylene

>  <Rat_Male_NTP> (229)
CE

>  <Reference> (229)
NTP311

>  <Formula> (229)
C2Cl4

>  <SMILES> (229)
ClC(=C(Cl)Cl)Cl

>  <Rat_Female_NTP> (229)
SE

>  <CAS> (229)
127-18-4

>  <Mouse_Female_NTP> (229)
CE

>  <Synonyms> (229)
1,1,2,2-Tetrachloroethylene; Ankilostin; tetralex; tetravec; Tetrochloroethane; tetroguer; Tetropil; antisol 1; Didakene; carbon dichloride; Dowper; Ethylene tetrachloride; fedal-un; Nema; PER; perawin; PERC; perchlor; Perchloroethylene; Perclene; perclene d; percosolve; PERK; perklone; persec; tetlen; Tetracap; tetrachloroethene; Tetrachloroethylene; tetraleno.

$$$$
230


 28 28  0  0  0  0  0  0  0  0999 V2000
    4.6650  -81.2079   -0.4999 C   0  0  0  0  0  0  0  0  0  0  0  0
    4.0803  -82.3941   -0.3991 C   0  0  0  0  0  0  0  0  0  0  0  0
    6.0972  -83.3626    0.4154 C   0  0  0  0  0  0  0  0  0  0  0  0
    6.7474  -82.0405    0.3357 C   0  0  0  0  0  0  0  0  0  0  0  0
    4.8256  -83.5223    0.0742 C   0  0  0  0  0  0  0  0  0  0  0  0
    6.0487  -80.9660   -0.1176 C   0  0  0  0  0  0  0  0  0  0  0  0
    8.3722  -81.9826    0.9190 Cl  0  0  0  0  0  0  0  0  0  0  0  0
    4.0711  -85.0718    0.1992 Cl  0  0  0  0  0  0  0  0  0  0  0  0
    2.4177  -82.5687   -0.8270 Cl  0  0  0  0  0  0  0  0  0  0  0  0
    6.5955  -79.4912   -0.2360 C   0  0  0  0  0  0  0  0  0  0  0  0
    5.8042  -78.2433   -0.0904 O   0  0  0  0  0  0  0  0  0  0  0  0
    7.8716  -79.1781   -0.5367 C   0  0  0  0  0  0  0  0  0  0  0  0
    9.1808  -80.2329   -0.9380 Cl  0  0  0  0  0  0  0  0  0  0  0  0
    4.2831  -78.0169    0.2704 P   0  0  0  0  0  0  0  0  0  0  0  0
    3.7662  -77.2142   -0.9634 O   0  0  0  0  0  0  0  0  0  0  0  0
    3.4048  -79.2406    0.5754 O   0  0  0  0  0  0  0  0  0  0  0  0
    4.0471  -77.1211    1.2354 O   0  0  0  0  0  0  0  0  0  0  0  0
    2.4634  -76.5904   -0.8350 C   0  0  0  0  0  0  0  0  0  0  0  0
    2.2431  -78.9967    1.4182 C   0  0  0  0  0  0  0  0  0  0  0  0
    4.1291  -80.4423   -0.8559 H   0  0  0  0  0  0  0  0  0  0  0  0
    6.6241  -84.1514    0.7320 H   0  0  0  0  0  0  0  0  0  0  0  0
    8.0908  -78.2025   -0.5263 H   0  0  0  0  0  0  0  0  0  0  0  0
    2.2395  -76.1077   -1.6817 H   0  0  0  0  0  0  0  0  0  0  0  0
    2.4780  -75.9403   -0.0752 H   0  0  0  0  0  0  0  0  0  0  0  0
    1.7731  -77.2923   -0.6595 H   0  0  0  0  0  0  0  0  0  0  0  0
    1.7436  -79.8523    1.5539 H   0  0  0  0  0  0  0  0  0  0  0  0
    1.6445  -78.3284    0.9764 H   0  0  0  0  0  0  0  0  0  0  0  0
    2.5420  -78.6417    2.3040 H   0  0  0  0  0  0  0  0  0  0  0  0
  1  2  2  0  0  0  0
  3  4  1  0  0  0  0
  1  6  1  0  0  0  0
  2  5  1  0  0  0  0
  5  3  2  0  0  0  0
  4  6  2  0  0  0  0
  4  7  1  0  0  0  0
  5  8  1  0  0  0  0
  2  9  1  0  0  0  0
  6 10  1  0  0  0  0
 10 11  1  0  0  0  0
 10 12  2  0  0  0  0
 12 13  1  0  0  0  0
 11 14  1  0  0  0  0
 14 15  1  0  0  0  0
 14 16  1  0  0  0  0
 14 17  2  0  0  0  0
 15 18  1  0  0  0  0
 16 19  1  0  0  0  0
  1 20  1  0  0  0  0
  3 21  1  0  0  0  0
 12 22  1  0  0  0  0
 18 23  1  0  0  0  0
 18 24  1  0  0  0  0
 18 25  1  0  0  0  0
 19 26  1  0  0  0  0
 19 27  1  0  0  0  0
 19 28  1  0  0  0  0
M  END
>  <Substance ID> (230)
230

>  <Mouse_Female_Canc> (230)
3

>  <SAL> (230)
1

>  <Rat_Male_Canc> (230)
1

>  <TD50_Rat> (230)
ND

>  <TD50_Mouse> (230)
228

>  <Rat_Female_Canc> (230)
3

>  <Canc> (230)
3

>  <MolWeight> (230)
365.96

>  <Mouse_Male_Canc> (230)
3

>  <Mouse_Male_NTP> (230)
ND

>  <ChemName> (230)
Tetrachlorvinphos

>  <Rat_Male_NTP> (230)
ND

>  <Reference> (230)
NTP33

>  <Formula> (230)
C10H9Cl4O4P

>  <SMILES> (230)
ClC1=CC(Cl)=C(/C(OP(=O)(OC)OC)=C/Cl)C=C1Cl

>  <Rat_Female_NTP> (230)
ND

>  <CAS> (230)
961-11-5

>  <Mouse_Female_NTP> (230)
ND

>  <Synonyms> (230)
2,4,5-trichloro-alpha-(chloromethylene)benzyl alcohol dimethyl phosphate; 2-Chloro-1-(2,4,5-trichlorophenyl)vinyl dimethyl phosphate; 2-chloro-1-(2,4,5-trichlorophenyl)vinyl phosphoric acid dimethyl ester; Dietreen; Gardona; Phosphoric acid, 2-chloro-1-(2,4,5-trichlorophenyl) ethenyl dimethyl ester; phosphoric acid, 2-chloro-1-(2,4,5-trichlorophenyl)vinyl dimethyl ester; Rabon; rabond; SD 8447; Shell SD 8447; Stirofos; Stirofus; Stirophos; tetrachlorovinphos.

$$$$
231


 27 28  0  0  0  0  0  0  0  0999 V2000
    3.8656  -90.5338   -0.5145 C   0  0  0  0  0  0  0  0  0  0  0  0
    4.1300  -91.7973   -0.1950 C   0  0  0  0  0  0  0  0  0  0  0  0
    6.3303  -91.1969    0.6456 C   0  0  0  0  0  0  0  0  0  0  0  0
    6.0502  -89.8004    0.2796 C   0  0  0  0  0  0  0  0  0  0  0  0
    5.4127  -92.1369    0.4160 C   0  0  0  0  0  0  0  0  0  0  0  0
    4.8727  -89.4854   -0.2675 C   0  0  0  0  0  0  0  0  0  0  0  0
    2.6329  -90.2073   -1.0833 N   0  0  0  0  0  0  0  0  0  0  0  0
    7.8508  -91.6904    1.4421 S   0  0  0  0  0  0  0  0  0  0  0  0
    9.3724  -91.2008    0.6441 C   0  0  0  0  0  0  0  0  0  0  0  0
   10.2894  -92.1423    0.4237 C   0  0  0  0  0  0  0  0  0  0  0  0
   11.8419  -90.5480   -0.5141 C   0  0  0  0  0  0  0  0  0  0  0  0
   10.8356  -89.4982   -0.2781 C   0  0  0  0  0  0  0  0  0  0  0  0
   11.5730  -91.8075   -0.1847 C   0  0  0  0  0  0  0  0  0  0  0  0
    9.6568  -89.8065    0.2705 C   0  0  0  0  0  0  0  0  0  0  0  0
   13.0788  -90.2295   -1.0835 N   0  0  0  0  0  0  0  0  0  0  0  0
    3.4535  -92.5121   -0.3723 H   0  0  0  0  0  0  0  0  0  0  0  0
    6.7367  -89.0910    0.4392 H   0  0  0  0  0  0  0  0  0  0  0  0
    5.6050  -93.0861    0.6652 H   0  0  0  0  0  0  0  0  0  0  0  0
    4.6738  -88.5359   -0.5102 H   0  0  0  0  0  0  0  0  0  0  0  0
    2.4294  -89.2586   -1.3252 H   0  0  0  0  0  0  0  0  0  0  0  0
    1.9534  -90.9221   -1.2486 H   0  0  0  0  0  0  0  0  0  0  0  0
   10.0956  -93.0898    0.6783 H   0  0  0  0  0  0  0  0  0  0  0  0
   11.0354  -88.5511   -0.5295 H   0  0  0  0  0  0  0  0  0  0  0  0
   12.2492  -92.5245   -0.3536 H   0  0  0  0  0  0  0  0  0  0  0  0
    8.9724  -89.0941    0.4261 H   0  0  0  0  0  0  0  0  0  0  0  0
   13.7567  -90.9477   -1.2405 H   0  0  0  0  0  0  0  0  0  0  0  0
   13.2854  -89.2837   -1.3336 H   0  0  0  0  0  0  0  0  0  0  0  0
  1  2  2  0  0  0  0
  3  4  1  0  0  0  0
  1  6  1  0  0  0  0
  2  5  1  0  0  0  0
  5  3  2  0  0  0  0
  4  6  2  0  0  0  0
  1  7  1  0  0  0  0
  3  8  1  0  0  0  0
  8  9  1  0  0  0  0
  9 10  2  0  0  0  0
 11 12  1  0  0  0  0
  9 14  1  0  0  0  0
 10 13  1  0  0  0  0
 13 11  2  0  0  0  0
 12 14  2  0  0  0  0
 11 15  1  0  0  0  0
  2 16  1  0  0  0  0
  4 17  1  0  0  0  0
  5 18  1  0  0  0  0
  6 19  1  0  0  0  0
  7 20  1  0  0  0  0
  7 21  1  0  0  0  0
 10 22  1  0  0  0  0
 12 23  1  0  0  0  0
 13 24  1  0  0  0  0
 14 25  1  0  0  0  0
 15 26  1  0  0  0  0
 15 27  1  0  0  0  0
M  END
>  <Substance ID> (231)
231

>  <Mouse_Female_Canc> (231)
3

>  <SAL> (231)
3

>  <Rat_Male_Canc> (231)
3

>  <TD50_Rat> (231)
3.71

>  <TD50_Mouse> (231)
33.2

>  <Rat_Female_Canc> (231)
3

>  <Canc> (231)
3

>  <MolWeight> (231)
216.30

>  <Mouse_Male_Canc> (231)
3

>  <Mouse_Male_NTP> (231)
ND

>  <ChemName> (231)
4,4'-Thiobisbenzenamine

>  <Rat_Male_NTP> (231)
ND

>  <Reference> (231)
NTP47

>  <Formula> (231)
C12H12N2S

>  <SMILES> (231)
C1(=CC=C(C=C1)SC2=CC=C(C=C2)N)N

>  <Rat_Female_NTP> (231)
ND

>  <CAS> (231)
139-65-1

>  <Mouse_Female_NTP> (231)
ND

>  <Synonyms> (231)
p,p'-Diaminodiphenyl Sulfide; bis(p-aminophenyl)sulfide; thioaniline; thiodi-p-phenylenediamine.

$$$$
232


  8  7  0  0  0  0  0  0  0  0999 V2000
   36.2352   -3.4427    0.2967 C   0  0  0  0  0  0  0  0  0  0  0  0
   37.2590   -2.0640   -0.1185 Cl  0  0  0  0  0  0  0  0  0  0  0  0
   34.8628   -3.2852   -0.3831 C   0  0  0  0  0  0  0  0  0  0  0  0
   34.0986   -1.7923    0.1727 Cl  0  0  0  0  0  0  0  0  0  0  0  0
   33.8375   -4.6630    0.0320 Cl  0  0  0  0  0  0  0  0  0  0  0  0
   36.6687   -4.2867   -0.0190 H   0  0  0  0  0  0  0  0  0  0  0  0
   36.1135   -3.4807    1.2885 H   0  0  0  0  0  0  0  0  0  0  0  0
   34.9844   -3.2480   -1.3750 H   0  0  0  0  0  0  0  0  0  0  0  0
  1  2  1  0  0  0  0
  1  3  1  0  0  0  0
  3  4  1  0  0  0  0
  3  5  1  0  0  0  0
  1  6  1  0  0  0  0
  1  7  1  0  0  0  0
  3  8  1  0  0  0  0
M  END
>  <Substance ID> (232)
232

>  <Mouse_Female_Canc> (232)
3

>  <SAL> (232)
1

>  <Rat_Male_Canc> (232)
1

>  <TD50_Rat> (232)
NP

>  <TD50_Mouse> (232)
55

>  <Rat_Female_Canc> (232)
1

>  <Canc> (232)
3

>  <MolWeight> (232)
133.40

>  <Mouse_Male_Canc> (232)
3

>  <Mouse_Male_NTP> (232)
ND

>  <ChemName> (232)
1,1,2-Trichloroethane

>  <Rat_Male_NTP> (232)
ND

>  <Reference> (232)
NTP74

>  <Formula> (232)
C2H3Cl3

>  <SMILES> (232)
ClC(CCl)Cl

>  <Rat_Female_NTP> (232)
ND

>  <CAS> (232)
79-00-5

>  <Mouse_Female_NTP> (232)
ND

>  <Synonyms> (232)
1,1,2-TRICHLOROETHANE (VINYL TRICHLORIDE); 1,2,2-Trichloroethane; beta-trichloroethane; ethane trichloride; Trichloroethane, 1,1,2-; Vinyl trichloride.

$$$$
233


 13 13  0  0  0  0  0  0  0  0999 V2000
   35.0485   -9.8182    0.0001 C   0  0  0  0  0  0  0  0  0  0  0  0
   35.0419  -11.1499   -0.0005 C   0  0  0  0  0  0  0  0  0  0  0  0
   37.4620  -11.2277    0.0002 C   0  0  0  0  0  0  0  0  0  0  0  0
   37.4695   -9.7638    0.0005 C   0  0  0  0  0  0  0  0  0  0  0  0
   36.3060  -11.8877   -0.0000 C   0  0  0  0  0  0  0  0  0  0  0  0
   36.3197   -9.0925    0.0008 C   0  0  0  0  0  0  0  0  0  0  0  0
   36.3266   -7.7010    0.0011 O   0  0  0  0  0  0  0  0  0  0  0  0
   33.5558   -8.9463    0.0002 Cl  0  0  0  0  0  0  0  0  0  0  0  0
   38.9697   -8.9070   -0.0004 Cl  0  0  0  0  0  0  0  0  0  0  0  0
   36.2979  -13.6156    0.0000 Cl  0  0  0  0  0  0  0  0  0  0  0  0
   34.1735  -11.6458   -0.0012 H   0  0  0  0  0  0  0  0  0  0  0  0
   38.3255  -11.7320    0.0003 H   0  0  0  0  0  0  0  0  0  0  0  0
   37.2708   -7.3719    0.0016 H   0  0  0  0  0  0  0  0  0  0  0  0
  1  2  2  0  0  0  0
  3  4  1  0  0  0  0
  1  6  1  0  0  0  0
  2  5  1  0  0  0  0
  5  3  2  0  0  0  0
  4  6  2  0  0  0  0
  6  7  1  0  0  0  0
  1  8  1  0  0  0  0
  4  9  1  0  0  0  0
  5 10  1  0  0  0  0
  2 11  1  0  0  0  0
  3 12  1  0  0  0  0
  7 13  1  0  0  0  0
M  END
>  <Substance ID> (233)
233

>  <Mouse_Female_Canc> (233)
3

>  <SAL> (233)
1

>  <Rat_Male_Canc> (233)
3

>  <TD50_Rat> (233)
405

>  <TD50_Mouse> (233)
1070

>  <Rat_Female_Canc> (233)
1

>  <Canc> (233)
3

>  <MolWeight> (233)
197.45

>  <Mouse_Male_Canc> (233)
3

>  <Mouse_Male_NTP> (233)
ND

>  <ChemName> (233)
2,4,6-Trichlorophenol

>  <Rat_Male_NTP> (233)
ND

>  <Reference> (233)
NTP155

>  <Formula> (233)
C6H3Cl3O

>  <SMILES> (233)
OC1=C(C=C(C=C1Cl)Cl)Cl

>  <Rat_Female_NTP> (233)
ND

>  <CAS> (233)
88-06-2

>  <Mouse_Female_NTP> (233)
ND

>  <Synonyms> (233)
2,4,6 T; 2,4,6-TCP; 2,4,6-Trichloro-2-hydroxybenzene; dowcide 2S; Dowicide 2S; Omal; Phenachlor; TCP; Trichlorophenol, 2,4,6-.

$$$$
234


 39 39  0  0  0  0  0  0  0  0999 V2000
   34.8284  -21.3891   -0.3859 C   0  0  0  0  0  0  0  0  0  0  0  0
   34.8939  -22.7131   -0.3262 C   0  0  0  0  0  0  0  0  0  0  0  0
   37.1882  -22.6907    0.1545 C   0  0  0  0  0  0  0  0  0  0  0  0
   37.1780  -21.2380    0.1961 C   0  0  0  0  0  0  0  0  0  0  0  0
   36.0945  -23.3815   -0.0495 C   0  0  0  0  0  0  0  0  0  0  0  0
   36.0560  -20.4974   -0.0590 C   0  0  0  0  0  0  0  0  0  0  0  0
   35.9837  -18.8663    0.0147 N   0  0  0  0  0  0  0  0  0  0  0  0
   36.1252  -24.8610   -0.0067 C   0  0  0  0  0  0  0  0  0  0  0  0
   37.1979  -17.9180   -0.0166 C   0  0  0  0  0  0  0  0  0  0  0  0
   34.6765  -18.0887    0.1662 C   0  0  0  0  0  0  0  0  0  0  0  0
   38.4531  -18.2657   -0.9194 C   0  0  0  0  0  0  0  0  0  0  0  0
   39.7209  -17.5558   -0.3245 C   0  0  0  0  0  0  0  0  0  0  0  0
   33.5375  -18.6741    1.1024 C   0  0  0  0  0  0  0  0  0  0  0  0
   32.1945  -17.9137    0.8355 C   0  0  0  0  0  0  0  0  0  0  0  0
   36.1079  -25.3100   -1.3004 F   0  0  0  0  0  0  0  0  0  0  0  0
   34.9798  -25.3086    0.6077 F   0  0  0  0  0  0  0  0  0  0  0  0
   37.2645  -25.3017    0.6272 F   0  0  0  0  0  0  0  0  0  0  0  0
   38.3647  -20.7491    0.5990 N   0  3  0  0  0  0  0  0  0  0  0  0
   39.4716  -21.3421    0.2069 O   0  5  0  0  0  0  0  0  0  0  0  0
   38.3976  -19.9022    1.3979 O   0  0  0  0  0  0  0  0  0  0  0  0
   33.5998  -20.9340   -0.7994 N   0  3  0  0  0  0  0  0  0  0  0  0
   33.4977  -19.8974   -1.5890 O   0  5  0  0  0  0  0  0  0  0  0  0
   32.6484  -21.5610   -0.5242 O   0  0  0  0  0  0  0  0  0  0  0  0
   34.0640  -23.2486   -0.4828 H   0  0  0  0  0  0  0  0  0  0  0  0
   38.0531  -23.1754    0.2850 H   0  0  0  0  0  0  0  0  0  0  0  0
   36.8607  -17.0276   -0.3222 H   0  0  0  0  0  0  0  0  0  0  0  0
   37.5305  -17.8443    0.9236 H   0  0  0  0  0  0  0  0  0  0  0  0
   34.9130  -17.1848    0.5227 H   0  0  0  0  0  0  0  0  0  0  0  0
   34.2840  -17.9945   -0.7487 H   0  0  0  0  0  0  0  0  0  0  0  0
   38.5961  -19.2554   -0.9283 H   0  0  0  0  0  0  0  0  0  0  0  0
   38.2948  -17.9428   -1.8525 H   0  0  0  0  0  0  0  0  0  0  0  0
   40.5186  -17.7697   -0.8883 H   0  0  0  0  0  0  0  0  0  0  0  0
   39.8770  -17.8785    0.6091 H   0  0  0  0  0  0  0  0  0  0  0  0
   39.5758  -16.5664   -0.3149 H   0  0  0  0  0  0  0  0  0  0  0  0
   33.4134  -19.6469    0.9068 H   0  0  0  0  0  0  0  0  0  0  0  0
   33.8012  -18.5572    2.0599 H   0  0  0  0  0  0  0  0  0  0  0  0
   31.4779  -18.2841    1.4265 H   0  0  0  0  0  0  0  0  0  0  0  0
   31.9296  -18.0301   -0.1218 H   0  0  0  0  0  0  0  0  0  0  0  0
   32.3172  -16.9407    1.0310 H   0  0  0  0  0  0  0  0  0  0  0  0
  1  2  2  0  0  0  0
  3  4  1  0  0  0  0
  1  6  1  0  0  0  0
  2  5  1  0  0  0  0
  5  3  2  0  0  0  0
  4  6  2  0  0  0  0
  6  7  1  0  0  0  0
  5  8  1  0  0  0  0
  7  9  1  0  0  0  0
  7 10  1  0  0  0  0
  9 11  1  0  0  0  0
 11 12  1  0  0  0  0
 10 13  1  0  0  0  0
 13 14  1  0  0  0  0
  8 15  1  0  0  0  0
  8 16  1  0  0  0  0
  8 17  1  0  0  0  0
 18 19  1  0  0  0  0
 18 20  2  0  0  0  0
  4 18  1  0  0  0  0
 21 22  1  0  0  0  0
 21 23  2  0  0  0  0
  1 21  1  0  0  0  0
  2 24  1  0  0  0  0
  3 25  1  0  0  0  0
  9 26  1  0  0  0  0
  9 27  1  0  0  0  0
 10 28  1  0  0  0  0
 10 29  1  0  0  0  0
 11 30  1  0  0  0  0
 11 31  1  0  0  0  0
 12 32  1  0  0  0  0
 12 33  1  0  0  0  0
 12 34  1  0  0  0  0
 13 35  1  0  0  0  0
 13 36  1  0  0  0  0
 14 37  1  0  0  0  0
 14 38  1  0  0  0  0
 14 39  1  0  0  0  0
M  END
>  <Substance ID> (234)
234

>  <Mouse_Female_Canc> (234)
3

>  <SAL> (234)
3

>  <Rat_Male_Canc> (234)
1

>  <TD50_Rat> (234)
NP

>  <TD50_Mouse> (234)
330

>  <Rat_Female_Canc> (234)
1

>  <Canc> (234)
3

>  <MolWeight> (234)
335.28

>  <Mouse_Male_Canc> (234)
1

>  <Mouse_Male_NTP> (234)
ND

>  <ChemName> (234)
Trifluralin

>  <Rat_Male_NTP> (234)
ND

>  <Reference> (234)
NTP34

>  <Formula> (234)
C13H16F3N3O4

>  <SMILES> (234)
O=[N+](C1=C(C(=CC(=C1)C(F)(F)F)[N+](=O)[O-])N(CCC)CCC)[O-]

>  <Rat_Female_NTP> (234)
ND

>  <CAS> (234)
1582-09-8

>  <Mouse_Female_NTP> (234)
ND

>  <Synonyms> (234)
2,6-Dinitro-N,N-dipropyl-4-(trifluoromethyl)-benzamine; 2,6-Dinitro-N,N-dipropyl-4-(trifluoromethyl)benzenamine; 2,6-dinitro-N,N-dipropyl-4-trifluoromethyl-aniline; 2,6-dinitro-N,N-dipropyl-alpha,alpha,alpha-trifluoro-p-toluidine; 4-(di-n-propylamino)-3,5-dinitro-1-trifluoromethylbenzene; alpha,alpha,alpha-Trifluoro-2,6-Dinitro-N,N-Dipropyl-p-Toluidine; Agreflan; agriflan 24; Benezeneamine, 2,6-dinitro-N,N-dipropyl-4-(trifluoromethyl)-; digermin; Commence; crisalin; Elancolan; elanocolan; L-36352; lilly 36,352; nitran; N,N-di-n-propyl-2,6-dinitro-4-trifluoromethylaniline; N,N-dipropyl-2,6-dinitro-4-trifluoromethylaniline; N,N-dipropyl-4-trifluoromethyl-2,6-dinitroaniline; olitref; Scotts Stop Weeds Before They Start; su seguro carpidor; TR-10; trefanocide; treficon; Treflam; Treflan; Treflan 10G; Treflan 4EC; Treflan 5G; Treflan EC; Treflan MTF; treflanocide elancolan; Treflan TR-10; trifurex; trikepin; Trilin 4EC; Trim.

$$$$
235


 23 23  0  0  0  0  0  0  0  0999 V2000
   30.8184  -33.0594   -0.0002 C   0  0  0  0  0  0  0  0  0  0  0  0
   30.8187  -34.3911   -0.0007 C   0  0  0  0  0  0  0  0  0  0  0  0
   33.2390  -34.4552    0.0001 C   0  0  0  0  0  0  0  0  0  0  0  0
   33.2387  -32.9916    0.0002 C   0  0  0  0  0  0  0  0  0  0  0  0
   32.0869  -35.1211    0.0001 C   0  0  0  0  0  0  0  0  0  0  0  0
   32.0856  -32.3266   -0.0003 C   0  0  0  0  0  0  0  0  0  0  0  0
   32.0845  -30.9299   -0.0001 N   0  0  0  0  0  0  0  0  0  0  0  0
   34.5382  -32.2398    0.0003 C   0  0  0  0  0  0  0  0  0  0  0  0
   29.5194  -35.1419   -0.0002 C   0  0  0  0  0  0  0  0  0  0  0  0
   32.0879  -36.6220    0.0004 C   0  0  0  0  0  0  0  0  0  0  0  0
   29.9522  -32.5597    0.0003 H   0  0  0  0  0  0  0  0  0  0  0  0
   34.1052  -34.9549    0.0001 H   0  0  0  0  0  0  0  0  0  0  0  0
   32.9501  -30.4292   -0.0002 H   0  0  0  0  0  0  0  0  0  0  0  0
   31.2181  -30.4305    0.0000 H   0  0  0  0  0  0  0  0  0  0  0  0
   34.3552  -31.2567    0.0003 H   0  0  0  0  0  0  0  0  0  0  0  0
   35.0632  -32.4805   -0.8161 H   0  0  0  0  0  0  0  0  0  0  0  0
   35.0631  -32.4806    0.8167 H   0  0  0  0  0  0  0  0  0  0  0  0
   29.7020  -36.1250   -0.0007 H   0  0  0  0  0  0  0  0  0  0  0  0
   28.9941  -34.9005   -0.8163 H   0  0  0  0  0  0  0  0  0  0  0  0
   28.9950  -34.9011    0.8165 H   0  0  0  0  0  0  0  0  0  0  0  0
   33.0307  -36.9552    0.0009 H   0  0  0  0  0  0  0  0  0  0  0  0
   31.6172  -36.9563   -0.8162 H   0  0  0  0  0  0  0  0  0  0  0  0
   31.6164  -36.9560    0.8166 H   0  0  0  0  0  0  0  0  0  0  0  0
  1  2  2  0  0  0  0
  3  4  1  0  0  0  0
  1  6  1  0  0  0  0
  2  5  1  0  0  0  0
  5  3  2  0  0  0  0
  4  6  2  0  0  0  0
  6  7  1  0  0  0  0
  4  8  1  0  0  0  0
  2  9  1  0  0  0  0
  5 10  1  0  0  0  0
  1 11  1  0  0  0  0
  3 12  1  0  0  0  0
  7 13  1  0  0  0  0
  7 14  1  0  0  0  0
  8 15  1  0  0  0  0
  8 16  1  0  0  0  0
  8 17  1  0  0  0  0
  9 18  1  0  0  0  0
  9 19  1  0  0  0  0
  9 20  1  0  0  0  0
 10 21  1  0  0  0  0
 10 22  1  0  0  0  0
 10 23  1  0  0  0  0
M  END
>  <Substance ID> (235)
235

>  <Mouse_Female_Canc> (235)
3

>  <SAL> (235)
3

>  <Rat_Male_Canc> (235)
3

>  <TD50_Rat> (235)
33.6

>  <TD50_Mouse> (235)
6.13

>  <Rat_Female_Canc> (235)
3

>  <Canc> (235)
3

>  <MolWeight> (235)
135.21

>  <Mouse_Male_Canc> (235)
2

>  <Mouse_Male_NTP> (235)
ND

>  <ChemName> (235)
2,4,5-Trimethylaniline

>  <Rat_Male_NTP> (235)
ND

>  <Reference> (235)
NTP160

>  <Formula> (235)
C9H13N

>  <SMILES> (235)
CC1=CC(=C(C=C1C)N)C

>  <Rat_Female_NTP> (235)
ND

>  <CAS> (235)
137-17-7

>  <Mouse_Female_NTP> (235)
ND

>  <Synonyms> (235)
1,2,4-trimethyl-5-aminobenzene; 1-amino-2,4,5-trimethylbenzene; pseudocumidine; psi-cumidine.

$$$$
236


 17 16  0  0  0  0  0  0  0  0999 V2000
   31.6556  -44.4030   -0.0001 N   0  0  0  0  0  0  0  0  0  0  0  0
   30.5401  -43.4450   -0.0013 C   0  0  0  0  0  0  0  0  0  0  0  0
   31.3841  -45.8479    0.0002 C   0  0  0  0  0  0  0  0  0  0  0  0
   33.0063  -43.9285    0.0004 C   0  0  0  0  0  0  0  0  0  0  0  0
   34.0658  -44.8383    0.0007 N   0  0  0  0  0  0  0  0  0  0  0  0
   33.2957  -42.3906    0.0007 S   0  0  0  0  0  0  0  0  0  0  0  0
   35.4204  -44.3631    0.0006 C   0  0  0  0  0  0  0  0  0  0  0  0
   30.9010  -42.5124   -0.0013 H   0  0  0  0  0  0  0  0  0  0  0  0
   29.9792  -43.5848    0.8147 H   0  0  0  0  0  0  0  0  0  0  0  0
   29.9804  -43.5853   -0.8181 H   0  0  0  0  0  0  0  0  0  0  0  0
   32.2489  -46.3500    0.0010 H   0  0  0  0  0  0  0  0  0  0  0  0
   30.8599  -46.0892   -0.8166 H   0  0  0  0  0  0  0  0  0  0  0  0
   30.8586  -46.0886    0.8162 H   0  0  0  0  0  0  0  0  0  0  0  0
   33.8808  -45.8211    0.0008 H   0  0  0  0  0  0  0  0  0  0  0  0
   36.0475  -45.1420    0.0008 H   0  0  0  0  0  0  0  0  0  0  0  0
   35.5793  -43.8077    0.8169 H   0  0  0  0  0  0  0  0  0  0  0  0
   35.5794  -43.8080   -0.8159 H   0  0  0  0  0  0  0  0  0  0  0  0
  1  2  1  0  0  0  0
  1  3  1  0  0  0  0
  1  4  1  0  0  0  0
  4  5  1  0  0  0  0
  4  6  2  0  0  0  0
  5  7  1  0  0  0  0
  2  8  1  0  0  0  0
  2  9  1  0  0  0  0
  2 10  1  0  0  0  0
  3 11  1  0  0  0  0
  3 12  1  0  0  0  0
  3 13  1  0  0  0  0
  5 14  1  0  0  0  0
  7 15  1  0  0  0  0
  7 16  1  0  0  0  0
  7 17  1  0  0  0  0
M  END
>  <Substance ID> (236)
236

>  <Mouse_Female_Canc> (236)
1

>  <SAL> (236)
1

>  <Rat_Male_Canc> (236)
1

>  <TD50_Rat> (236)
25.8

>  <TD50_Mouse> (236)
NP

>  <Rat_Female_Canc> (236)
3

>  <Canc> (236)
3

>  <MolWeight> (236)
118.20

>  <Mouse_Male_Canc> (236)
1

>  <Mouse_Male_NTP> (236)
ND

>  <ChemName> (236)
1,1,3-trimethyl-2-thiourea

>  <Rat_Male_NTP> (236)
ND

>  <Reference> (236)
NTP129

>  <Formula> (236)
C4H10N2S

>  <SMILES> (236)
S=C(N(C)C)NC

>  <Rat_Female_NTP> (236)
ND

>  <CAS> (236)
2489-77-2

>  <Mouse_Female_NTP> (236)
ND

>  <Synonyms> (236)
1,1,3-trimethylthiourea; 1,3,3-trimethylthiourea; N,N,N'-trimethylthiourea; thiate e; Trimethylthiourea.

$$$$
237


 35 34  0  0  0  0  0  0  0  0999 V2000
   32.1747  -48.9804   -0.2987 P   0  0  0  0  0  0  0  0  0  0  0  0
   30.9763  -48.9417    0.6110 O   0  0  0  0  0  0  0  0  0  0  0  0
   31.9716  -50.3655   -0.8665 O   0  0  0  0  0  0  0  0  0  0  0  0
   33.4473  -49.0646    0.5147 O   0  0  0  0  0  0  0  0  0  0  0  0
   32.0931  -48.0779   -1.2809 O   0  0  0  0  0  0  0  0  0  0  0  0
   34.4630  -48.2310   -0.0876 C   0  0  0  0  0  0  0  0  0  0  0  0
   35.8328  -48.6103    0.4994 C   0  0  2  0  0  0  0  0  0  0  0  0
   36.9314  -47.7629   -0.1719 C   0  0  0  0  0  0  0  0  0  0  0  0
   38.6681  -48.2895    0.5180 Br  0  0  0  0  0  0  0  0  0  0  0  0
   36.1736  -50.4855    0.1335 Br  0  0  0  0  0  0  0  0  0  0  0  0
   29.9002  -48.3039   -0.1009 C   0  0  0  0  0  0  0  0  0  0  0  0
   28.5535  -48.6356    0.5565 C   0  0  1  0  0  0  0  0  0  0  0  0
   27.4253  -47.9632   -0.2495 C   0  0  0  0  0  0  0  0  0  0  0  0
   25.7054  -48.4442    0.5114 Br  0  0  0  0  0  0  0  0  0  0  0  0
   28.2874  -50.5527    0.5071 Br  0  0  0  0  0  0  0  0  0  0  0  0
   32.5713  -51.3412    0.0031 C   0  0  0  0  0  0  0  0  0  0  0  0
   32.2997  -52.7536   -0.5105 C   0  0  1  0  0  0  0  0  0  0  0  0
   32.9967  -53.7650    0.4135 C   0  0  0  0  0  0  0  0  0  0  0  0
   32.6306  -55.5644   -0.2110 Br  0  0  0  0  0  0  0  0  0  0  0  0
   30.3924  -53.0857   -0.4904 Br  0  0  0  0  0  0  0  0  0  0  0  0
   34.4710  -48.3743   -1.0773 H   0  0  0  0  0  0  0  0  0  0  0  0
   34.2683  -47.2701    0.1090 H   0  0  0  0  0  0  0  0  0  0  0  0
   35.8351  -48.4439    1.4854 H   0  0  0  0  0  0  0  0  0  0  0  0
   36.9074  -47.9093   -1.1608 H   0  0  0  0  0  0  0  0  0  0  0  0
   36.7736  -46.7955    0.0263 H   0  0  0  0  0  0  0  0  0  0  0  0
   30.0380  -47.3135   -0.0880 H   0  0  0  0  0  0  0  0  0  0  0  0
   29.8935  -48.6277   -1.0470 H   0  0  0  0  0  0  0  0  0  0  0  0
   28.5460  -48.3088    1.5016 H   0  0  0  0  0  0  0  0  0  0  0  0
   27.5382  -46.9702   -0.2152 H   0  0  0  0  0  0  0  0  0  0  0  0
   27.4663  -48.2712   -1.1999 H   0  0  0  0  0  0  0  0  0  0  0  0
   33.5588  -51.1880    0.0380 H   0  0  0  0  0  0  0  0  0  0  0  0
   32.1859  -51.2450    0.9208 H   0  0  0  0  0  0  0  0  0  0  0  0
   32.6479  -52.8473   -1.4433 H   0  0  0  0  0  0  0  0  0  0  0  0
   33.9833  -53.6023    0.4026 H   0  0  0  0  0  0  0  0  0  0  0  0
   32.6511  -53.6586    1.3458 H   0  0  0  0  0  0  0  0  0  0  0  0
  1  2  1  0  0  0  0
  1  3  1  0  0  0  0
  1  4  1  0  0  0  0
  1  5  2  0  0  0  0
  4  6  1  0  0  0  0
  6  7  1  0  0  0  0
  7  8  1  0  0  0  0
  8  9  1  0  0  0  0
  7 10  1  0  0  0  0
  2 11  1  0  0  0  0
 11 12  1  0  0  0  0
 12 13  1  0  0  0  0
 13 14  1  0  0  0  0
 12 15  1  0  0  0  0
  3 16  1  0  0  0  0
 16 17  1  0  0  0  0
 17 18  1  0  0  0  0
 18 19  1  0  0  0  0
 17 20  1  0  0  0  0
  6 21  1  0  0  0  0
  6 22  1  0  0  0  0
  7 23  1  0  0  0  0
  8 24  1  0  0  0  0
  8 25  1  0  0  0  0
 11 26  1  0  0  0  0
 11 27  1  0  0  0  0
 12 28  1  0  0  0  0
 13 29  1  0  0  0  0
 13 30  1  0  0  0  0
 16 31  1  0  0  0  0
 16 32  1  0  0  0  0
 17 33  1  0  0  0  0
 18 34  1  0  0  0  0
 18 35  1  0  0  0  0
M  END
>  <Substance ID> (237)
237

>  <Mouse_Female_Canc> (237)
3

>  <SAL> (237)
3

>  <Rat_Male_Canc> (237)
3

>  <TD50_Rat> (237)
3.83

>  <TD50_Mouse> (237)
128

>  <Rat_Female_Canc> (237)
3

>  <Canc> (237)
3

>  <MolWeight> (237)
697.61

>  <Mouse_Male_Canc> (237)
3

>  <Mouse_Male_NTP> (237)
ND

>  <ChemName> (237)
Tris(2,3-dibromopropyl) phosphate

>  <Rat_Male_NTP> (237)
ND

>  <Reference> (237)
NTP76

>  <Formula> (237)
C9H15Br6O4P

>  <SMILES> (237)
O=P(OCC(CBr)Br)(OCC(CBr)Br)OCC(CBr)Br

>  <Rat_Female_NTP> (237)
ND

>  <CAS> (237)
126-72-7

>  <Mouse_Female_NTP> (237)
ND

>  <Synonyms> (237)
2,3-Dibromo-1-propanol phosphate; 2,3-dibromo-1-propanol phosphate (3:1); 2,3-Dibromopropyl phosphate; anfram 3pb; apex 462-5; bromkal p 67-6hp; ES685; firemaster lv-t 23p; firemaster t23p; firemaster t23p-lv; flacavon r; flamex t 23p; flammex ap; flammex lv-t 23p; flammex t 23p; fyrol hb32; phosphoric acid, tris(2,3-dibromopropyl) ester; T 23P; TDBPP; TRIS; Tris(2,3-dibromo-1-propyl)phosphate; tris(dibromopropyl)phosphate; Tris-bp; tris (flame retardant); zetifex zn.

$$$$
238


 20 20  0  0  0  0  0  0  0  0999 V2000
   32.5298  -63.2433    0.1443 C   0  0  0  0  0  0  0  0  0  0  0  0
   32.5677  -64.7035   -0.3564 C   0  0  0  0  0  0  0  0  0  0  0  0
   33.7421  -65.3956    0.3154 C   0  0  2  0  0  0  0  0  0  0  0  0
   35.0548  -64.7713   -0.1925 C   0  0  0  0  0  0  0  0  0  0  0  0
   35.0316  -63.2690   -0.0571 C   0  0  0  0  0  0  0  0  0  0  0  0
   33.8949  -62.5810    0.0966 C   0  0  0  0  0  0  0  0  0  0  0  0
   33.7358  -66.8734    0.0307 C   0  0  0  0  0  0  0  0  0  0  0  0
   34.8750  -67.5633    0.0187 C   0  0  0  0  0  0  0  0  0  0  0  0
   31.8997  -62.7224   -0.4316 H   0  0  0  0  0  0  0  0  0  0  0  0
   32.2021  -63.2361    1.0891 H   0  0  0  0  0  0  0  0  0  0  0  0
   31.7158  -65.1680   -0.1146 H   0  0  0  0  0  0  0  0  0  0  0  0
   32.6864  -64.7194   -1.3493 H   0  0  0  0  0  0  0  0  0  0  0  0
   33.6644  -65.2709    1.3046 H   0  0  0  0  0  0  0  0  0  0  0  0
   35.8175  -65.1353    0.3421 H   0  0  0  0  0  0  0  0  0  0  0  0
   35.1783  -65.0101   -1.1557 H   0  0  0  0  0  0  0  0  0  0  0  0
   35.8974  -62.7693   -0.0831 H   0  0  0  0  0  0  0  0  0  0  0  0
   33.9466  -61.5862    0.1838 H   0  0  0  0  0  0  0  0  0  0  0  0
   32.8704  -67.3405   -0.1508 H   0  0  0  0  0  0  0  0  0  0  0  0
   34.8631  -68.5450   -0.1712 H   0  0  0  0  0  0  0  0  0  0  0  0
   35.7423  -67.0995    0.1998 H   0  0  0  0  0  0  0  0  0  0  0  0
  1  2  1  0  0  0  0
  1  6  1  0  0  0  0
  2  3  1  0  0  0  0
  3  4  1  0  0  0  0
  4  5  1  0  0  0  0
  5  6  2  0  0  0  0
  3  7  1  0  0  0  0
  7  8  2  0  0  0  0
  1  9  1  0  0  0  0
  1 10  1  0  0  0  0
  2 11  1  0  0  0  0
  2 12  1  0  0  0  0
  3 13  1  0  0  0  0
  4 14  1  0  0  0  0
  4 15  1  0  0  0  0
  5 16  1  0  0  0  0
  6 17  1  0  0  0  0
  7 18  1  0  0  0  0
  8 19  1  0  0  0  0
  8 20  1  0  0  0  0
M  END
>  <Substance ID> (238)
238

>  <Mouse_Female_Canc> (238)
3

>  <SAL> (238)
1

>  <Rat_Male_Canc> (238)
ND

>  <TD50_Rat> (238)
ND

>  <TD50_Mouse> (238)
106

>  <Rat_Female_Canc> (238)
ND

>  <Canc> (238)
3

>  <MolWeight> (238)
108.18

>  <Mouse_Male_Canc> (238)
ND

>  <Mouse_Male_NTP> (238)
ND

>  <ChemName> (238)
4-Vinylcyclohexene

>  <Rat_Male_NTP> (238)
ND

>  <Reference> (238)
NTP303

>  <Formula> (238)
C8H12

>  <SMILES> (238)
C=CC1CCC=CC1

>  <Rat_Female_NTP> (238)
ND

>  <CAS> (238)
100-40-3

>  <Mouse_Female_NTP> (238)
CE

>  <Synonyms> (238)
1,2,3,4-tetrahydrostyrene; 1-vinylcyclohex-3-ene; 1-vinylcyclohexene-3; 4-ethenyl-1-cyclohexene; 4-ethenylcyclohexene; 4-Vinyl-1-cyclohexene; 4-Vinyl-1-cyclohexene, stabilized with 50-200 ppm BHT; 4-vinylcyclohexene-1; butadiene dimer; cyclohexenylethylene; Vinylcyclohexene.

$$$$
239


  7  6  0  0  0  0  0  0  0  0999 V2000
   33.5948  -74.5239   -0.0002 C   0  0  0  0  0  0  0  0  0  0  0  0
   35.9614  -74.1788   -0.0004 C   0  0  0  0  0  0  0  0  0  0  0  0
   34.6248  -73.6801   -0.0003 C   0  0  0  0  0  0  0  0  0  0  0  0
   37.0277  -74.6128   -0.0005 N   0  0  0  0  0  0  0  0  0  0  0  0
   32.6592  -74.1708   -0.0002 H   0  0  0  0  0  0  0  0  0  0  0  0
   33.7567  -75.5107   -0.0002 H   0  0  0  0  0  0  0  0  0  0  0  0
   34.4609  -72.6937   -0.0003 H   0  0  0  0  0  0  0  0  0  0  0  0
  2  3  1  0  0  0  0
  3  1  2  0  0  0  0
  2  4  3  0  0  0  0
  1  5  1  0  0  0  0
  1  6  1  0  0  0  0
  3  7  1  0  0  0  0
M  END
>  <Substance ID> (239)
239

>  <Mouse_Female_Canc> (239)
3

>  <SAL> (239)
3

>  <Rat_Male_Canc> (239)
3

>  <TD50_Rat> (239)
16.9

>  <TD50_Mouse> (239)
ND

>  <Rat_Female_Canc> (239)
3

>  <Canc> (239)
3

>  <MolWeight> (239)
53.06

>  <Mouse_Male_Canc> (239)
3

>  <Mouse_Male_NTP> (239)
CE

>  <ChemName> (239)
Acrylonitrile 

>  <Rat_Male_NTP> (239)
ND

>  <Reference> (239)
CPDB & NTP506

>  <Formula> (239)
C3H3N

>  <SMILES> (239)
C=CC#N

>  <Rat_Female_NTP> (239)
ND

>  <CAS> (239)
107-13-1

>  <Mouse_Female_NTP> (239)
CE

>  <Synonyms> (239)
2-Propenenitrile; ACN; AN; Cyanoethylene; Fumigrain; miller's fumigrain; propenenitrile; Propenitrile; propenonitrile; TL 314; VCN; vinyl cyanide.

$$$$
240


  9  8  0  0  0  0  0  0  0  0999 V2000
   32.6346  -82.6855    0.0000 Cl  0  0  0  0  0  0  0  0  0  0  0  0
   34.0782  -81.6663   -0.0002 C   0  0  0  0  0  0  0  0  0  0  0  0
   35.2457  -82.4918   -0.0001 O   0  0  0  0  0  0  0  0  0  0  0  0
   36.4132  -81.6661   -0.0002 C   0  0  0  0  0  0  0  0  0  0  0  0
   37.8569  -82.6849   -0.0002 Cl  0  0  0  0  0  0  0  0  0  0  0  0
   34.0783  -81.0893   -0.8169 H   0  0  0  0  0  0  0  0  0  0  0  0
   34.0784  -81.0891    0.8164 H   0  0  0  0  0  0  0  0  0  0  0  0
   36.4128  -81.0891   -0.8170 H   0  0  0  0  0  0  0  0  0  0  0  0
   36.4129  -81.0889    0.8163 H   0  0  0  0  0  0  0  0  0  0  0  0
  1  2  1  0  0  0  0
  2  3  1  0  0  0  0
  3  4  1  0  0  0  0
  4  5  1  0  0  0  0
  2  6  1  0  0  0  0
  2  7  1  0  0  0  0
  4  8  1  0  0  0  0
  4  9  1  0  0  0  0
M  END
>  <Substance ID> (240)
240

>  <Mouse_Female_Canc> (240)
3

>  <SAL> (240)
3

>  <Rat_Male_Canc> (240)
3

>  <TD50_Rat> (240)
3.57E-03

>  <TD50_Mouse> (240)
0.182

>  <Rat_Female_Canc> (240)
ND

>  <Canc> (240)
3

>  <MolWeight> (240)
114.96

>  <Mouse_Male_Canc> (240)
3

>  <Mouse_Male_NTP> (240)
ND

>  <ChemName> (240)
Bis(chloromethyl)ether 

>  <Rat_Male_NTP> (240)
ND

>  <Reference> (240)
CPDB

>  <Formula> (240)
C2H4Cl2O

>  <SMILES> (240)
ClCOCCl

>  <Rat_Female_NTP> (240)
ND

>  <CAS> (240)
542-88-1

>  <Mouse_Female_NTP> (240)
ND

>  <Synonyms> (240)
1,1'-Dichlorodimethyl Ether; BCME; BIS(2-CHLOROMETHYL) ETHER; Dichlorodimethyl ether, symmetrical; chloromethyl ether; oxybis[chloromethane]; sym-Dichloromethyl Ether.

$$$$
241


  9  8  0  0  0  0  0  0  0  0999 V2000
   32.9667  -90.3376    0.0004 C   0  0  0  0  0  0  0  0  0  0  0  0
   34.1780  -89.5779    0.0005 O   0  0  0  0  0  0  0  0  0  0  0  0
   35.2983  -90.4663   -0.0002 C   0  0  0  0  0  0  0  0  0  0  0  0
   36.7950  -89.5275    0.0001 Cl  0  0  0  0  0  0  0  0  0  0  0  0
   32.1831  -89.7165    0.0009 H   0  0  0  0  0  0  0  0  0  0  0  0
   32.9346  -90.9146    0.8165 H   0  0  0  0  0  0  0  0  0  0  0  0
   32.9342  -90.9139   -0.8163 H   0  0  0  0  0  0  0  0  0  0  0  0
   35.2667  -91.0430    0.8162 H   0  0  0  0  0  0  0  0  0  0  0  0
   35.2664  -91.0422   -0.8171 H   0  0  0  0  0  0  0  0  0  0  0  0
  1  2  1  0  0  0  0
  2  3  1  0  0  0  0
  3  4  1  0  0  0  0
  1  5  1  0  0  0  0
  1  6  1  0  0  0  0
  1  7  1  0  0  0  0
  3  8  1  0  0  0  0
  3  9  1  0  0  0  0
M  END
>  <Substance ID> (241)
241

>  <Mouse_Female_Canc> (241)
ND

>  <SAL> (241)
1

>  <Rat_Male_Canc> (241)
3

>  <TD50_Rat> (241)
5.5

>  <TD50_Mouse> (241)
ND

>  <Rat_Female_Canc> (241)
ND

>  <Canc> (241)
3

>  <MolWeight> (241)
80.51

>  <Mouse_Male_Canc> (241)
ND

>  <Mouse_Male_NTP> (241)
ND

>  <ChemName> (241)
Chloromethyl Methyl Ether

>  <Rat_Male_NTP> (241)
ND

>  <Reference> (241)
CPDB

>  <Formula> (241)
C2H5ClO

>  <SMILES> (241)
ClCOC

>  <Rat_Female_NTP> (241)
ND

>  <CAS> (241)
107-30-2

>  <Mouse_Female_NTP> (241)
ND

>  <Synonyms> (241)
Chlorodimethyl ether; chloromethoxymethane; Chloromethyl Methyl Ether; CMME; methyl chloromethyl ether; Monochlorodimethyl ether.

$$$$
242


 15 14  0  0  0  0  0  0  0  0999 V2000
    7.8795   -3.3164    0.2016 S   0  0  0  0  0  0  0  0  0  1  0  0
    6.8977   -1.8729   -0.3382 C   0  0  0  0  0  0  0  0  0  2  0  0
    7.1495   -4.9021   -0.3381 C   0  0  0  0  0  0  0  0  0  3  0  0
    5.8449   -5.2280    0.4187 C   0  0  0  0  0  0  0  0  0  4  0  0
    5.5572   -1.7668    0.4187 C   0  0  0  0  0  0  0  0  0  5  0  0
    4.6460   -0.3807   -0.1824 Cl  0  0  0  0  0  0  0  0  0  6  0  0
    5.1751   -6.7456   -0.1823 Cl  0  0  0  0  0  0  0  0  0  7  0  0
    7.4284   -1.0418   -0.1720 H   0  0  0  0  0  0  0  0  0  0  0  0
    6.7095   -1.9587   -1.3166 H   0  0  0  0  0  0  0  0  0  0  0  0
    6.9498   -4.8486   -1.3165 H   0  0  0  0  0  0  0  0  0  0  0  0
    7.8101   -5.6342   -0.1718 H   0  0  0  0  0  0  0  0  0  0  0  0
    6.0398   -5.3142    1.3957 H   0  0  0  0  0  0  0  0  0  0  0  0
    5.1836   -4.4920    0.2739 H   0  0  0  0  0  0  0  0  0  0  0  0
    5.0265   -2.6019    0.2740 H   0  0  0  0  0  0  0  0  0  0  0  0
    5.7352   -1.6495    1.3957 H   0  0  0  0  0  0  0  0  0  0  0  0
  1  2  1  0  0  0  0
  1  3  1  0  0  0  0
  3  4  1  0  0  0  0
  2  5  1  0  0  0  0
  5  6  1  0  0  0  0
  4  7  1  0  0  0  0
  2  8  1  0  0  0  0
  2  9  1  0  0  0  0
  3 10  1  0  0  0  0
  3 11  1  0  0  0  0
  4 12  1  0  0  0  0
  4 13  1  0  0  0  0
  5 14  1  0  0  0  0
  5 15  1  0  0  0  0
M  END
>  <Substance ID> (242)
242

>  <Mouse_Female_Canc> (242)
3

>  <SAL> (242)
3

>  <Rat_Male_Canc> (242)
ND

>  <TD50_Rat> (242)
ND

>  <TD50_Mouse> (242)
ND

>  <Rat_Female_Canc> (242)
ND

>  <Canc> (242)
3

>  <MolWeight> (242)
159.07

>  <Mouse_Male_Canc> (242)
3

>  <Mouse_Male_NTP> (242)
ND

>  <ChemName> (242)
Bis(2-chloroethyl)sulfide

>  <Rat_Male_NTP> (242)
ND

>  <Reference> (242)
Toxnet

>  <Formula> (242)
C4H8Cl2S

>  <SMILES> (242)
ClCCSCCCl

>  <Rat_Female_NTP> (242)
ND

>  <CAS> (242)
505-60-2

>  <Mouse_Female_NTP> (242)
ND

>  <Synonyms> (242)
1-chloro-2-(beta-chloroethylthio)ethane; 2,2'-dichlorodiethyl sulfide; 2,2'-dichloroethyl sulfide; beta, beta'-dichlorodiethyl sulfide; beta, beta'-dichloroethyl sulfide; Bis(beta-chloroethyl)sulfide; HD; HD (chemical warfare agent); HS; Iprit; KampfstoffLost; Kampstoff Lost; Lost; Mustard; Mustard gas; MUSTARD GAS [BIS-2-CHLOROETHYL SULFIDE]; Senfgas; S-lost; Sulfur mustard; S-yperite; Yellow Cross; Yperite.

$$$$
243


  7  7  0  0  0  0  0  0  0  0999 V2000
    4.2025  -11.7737    0.0003 C   0  0  0  0  0  0  0  0  0  0  0  0
    5.7084  -11.7740   -0.0003 C   0  0  0  0  0  0  0  0  0  0  0  0
    4.9557  -10.5374   -0.0001 O   0  0  0  0  0  0  0  0  0  0  0  0
    3.6989  -12.0563   -0.8161 H   0  0  0  0  0  0  0  0  0  0  0  0
    3.6996  -12.0562    0.8172 H   0  0  0  0  0  0  0  0  0  0  0  0
    6.2118  -12.0568    0.8161 H   0  0  0  0  0  0  0  0  0  0  0  0
    6.2112  -12.0569   -0.8172 H   0  0  0  0  0  0  0  0  0  0  0  0
  2  1  1  0  0  0  0
  3  2  1  0  0  0  0
  1  3  1  0  0  0  0
  1  4  1  0  0  0  0
  1  5  1  0  0  0  0
  2  6  1  0  0  0  0
  2  7  1  0  0  0  0
M  END
>  <Substance ID> (243)
243

>  <Mouse_Female_Canc> (243)
3

>  <SAL> (243)
3

>  <Rat_Male_Canc> (243)
3

>  <TD50_Rat> (243)
21.3

>  <TD50_Mouse> (243)
63.7

>  <Rat_Female_Canc> (243)
3

>  <Canc> (243)
3

>  <MolWeight> (243)
44.05

>  <Mouse_Male_Canc> (243)
3

>  <Mouse_Male_NTP> (243)
CE

>  <ChemName> (243)
Ethylene Oxide 

>  <Rat_Male_NTP> (243)
ND

>  <Reference> (243)
NTP326 & CPDB

>  <Formula> (243)
C2H4O

>  <SMILES> (243)
C1CO1

>  <Rat_Female_NTP> (243)
ND

>  <CAS> (243)
75-21-8

>  <Mouse_Female_NTP> (243)
CE

>  <Synonyms> (243)
1,2-epoxyethane; Alpha,beta-oxidoethane; amprolene; anprolene; anproline; Dihydrooxirene; dimethylene oxide; E.O.; Epoxyethane; Ethene oxide; Ethox; ETO; fema no. 2433; merpol; oxacyclopropane; Oxane; oxidoethane; oxirane; oxyfume; oxyfume 12; Qazi-ketcham; T-GAS.

$$$$
244


 32 32  0  0  0  0  0  0  0  0999 V2000
    5.9984  -21.3155   -0.2632 C   0  0  0  0  0  0  0  0  0  0  0  0
    6.2522  -22.6148   -0.3925 C   0  0  0  0  0  0  0  0  0  0  0  0
    8.6116  -22.2574   -0.1586 C   0  0  0  0  0  0  0  0  0  0  0  0
    8.3495  -20.8239   -0.0254 C   0  0  0  0  0  0  0  0  0  0  0  0
    7.6092  -23.1234   -0.3193 C   0  0  0  0  0  0  0  0  0  0  0  0
    7.0980  -20.3760   -0.0633 C   0  0  0  0  0  0  0  0  0  0  0  0
    7.9730  -24.6120   -0.4206 C   0  0  2  0  0  0  0  0  0  0  0  0
    7.0764  -25.7437    0.2827 C   0  0  2  0  0  0  0  0  0  0  0  0
    7.7924  -27.0676   -0.0142 C   0  0  0  0  0  0  0  0  0  0  0  0
    7.0838  -28.1366    0.6208 O   0  0  0  0  0  0  0  0  0  0  0  0
    9.3223  -24.7217    0.0363 O   0  0  0  0  0  0  0  0  0  0  0  0
    5.6733  -25.9491   -0.2142 N   0  0  0  0  0  0  0  0  0  0  0  0
    4.5205  -25.1781    0.1491 C   0  0  0  0  0  0  0  0  0  0  0  0
    3.1880  -25.5254   -0.4465 C   0  0  0  0  0  0  0  0  0  0  0  0
    4.6036  -24.2507    0.9592 O   0  0  0  0  0  0  0  0  0  0  0  0
    1.8693  -24.6657    0.3489 Cl  0  0  0  0  0  0  0  0  0  0  0  0
    2.9531  -27.2768   -0.4835 Cl  0  0  0  0  0  0  0  0  0  0  0  0
    6.8363  -19.0162    0.0867 N   0  3  0  0  0  0  0  0  0  0  0  0
    7.8365  -18.1614    0.2306 O   0  5  0  0  0  0  0  0  0  0  0  0
    5.7261  -18.6298    0.0892 O   0  0  0  0  0  0  0  0  0  0  0  0
    5.0562  -20.9828   -0.3029 H   0  0  0  0  0  0  0  0  0  0  0  0
    5.4956  -23.2513   -0.5425 H   0  0  0  0  0  0  0  0  0  0  0  0
    9.5535  -22.5921   -0.1288 H   0  0  0  0  0  0  0  0  0  0  0  0
    9.1084  -20.1836    0.0936 H   0  0  0  0  0  0  0  0  0  0  0  0
    7.7990  -24.8310   -1.3806 H   0  0  0  0  0  0  0  0  0  0  0  0
    6.9861  -25.4518    1.2349 H   0  0  0  0  0  0  0  0  0  0  0  0
    7.8153  -27.2215   -1.0020 H   0  0  0  0  0  0  0  0  0  0  0  0
    8.7271  -27.0291    0.3394 H   0  0  0  0  0  0  0  0  0  0  0  0
    7.5460  -29.0027    0.4309 H   0  0  0  0  0  0  0  0  0  0  0  0
    9.6132  -25.6774   -0.0086 H   0  0  0  0  0  0  0  0  0  0  0  0
    5.5294  -26.6972   -0.8621 H   0  0  0  0  0  0  0  0  0  0  0  0
    3.1792  -25.2131   -1.3965 H   0  0  0  0  0  0  0  0  0  0  0  0
  1  2  2  0  0  0  0
  3  4  1  0  0  0  0
  1  6  1  0  0  0  0
  2  5  1  0  0  0  0
  5  3  2  0  0  0  0
  4  6  2  0  0  0  0
  5  7  1  0  0  0  0
  7  8  1  0  0  0  0
  8  9  1  0  0  0  0
  9 10  1  0  0  0  0
  7 11  1  0  0  0  0
  8 12  1  0  0  0  0
 12 13  1  0  0  0  0
 13 14  1  0  0  0  0
 13 15  2  0  0  0  0
 14 16  1  0  0  0  0
 14 17  1  0  0  0  0
 18 19  1  0  0  0  0
 18 20  2  0  0  0  0
  6 18  1  0  0  0  0
  1 21  1  0  0  0  0
  2 22  1  0  0  0  0
  3 23  1  0  0  0  0
  4 24  1  0  0  0  0
  7 25  1  0  0  0  0
  8 26  1  0  0  0  0
  9 27  1  0  0  0  0
  9 28  1  0  0  0  0
 10 29  1  0  0  0  0
 11 30  1  0  0  0  0
 12 31  1  0  0  0  0
 14 32  1  0  0  0  0
M  END
>  <Substance ID> (244)
244

>  <Mouse_Female_Canc> (244)
ND

>  <SAL> (244)
1

>  <Rat_Male_Canc> (244)
ND

>  <TD50_Rat> (244)
NP

>  <TD50_Mouse> (244)
ND

>  <Rat_Female_Canc> (244)
1

>  <Canc> (244)
1

>  <MolWeight> (244)
323.13

>  <Mouse_Male_Canc> (244)
ND

>  <Mouse_Male_NTP> (244)
ND

>  <ChemName> (244)
Chloroamphenicol

>  <Rat_Male_NTP> (244)
ND

>  <Reference> (244)
CPDB

>  <Formula> (244)
C11H12Cl2N2O5

>  <SMILES> (244)
O[C@@H](C1=CC=C(C=C1)[N+](=O)[O-])[C@@H](NC(=O)C(Cl)Cl)CO

>  <Rat_Female_NTP> (244)
ND

>  <CAS> (244)
56-75-7

>  <Mouse_Female_NTP> (244)
ND

>  <Synonyms> (244)
2,2-Dichloro-N-[2-hydroxy-1-(hydroxymethyl)-2-(4-nitrophenyl)ethyl]acetamide; Paraxin; Cidocetine; Ciplamycetin; Cloramfen; Cloramficin; Cloramical; Cloramicol; Clorocyn; Cloromissan; Cylphenicol; D-(-)-threo-1-(p-nitrophenyl)-2-dichloroacetamido-1,3-propanediol; D-(-)-threo-2,2-Dichloro-N-[beta-hydroxy-alpha-(hydroxy-methyl)-p-nitrophenethyl]acetamide; D(-)-threo-2-dichloroacetamido-1-p-nitrophenyl-propanediol; D-threo-N-(1,1'-dihydroxy-1-p-nitrophenylisopropyl)dichloroacetamide; D-threo-N-dichloroacetyl-1-p-nitrophenyl-2-amino-1,3-propane-diol; Duphenicol; Embacetin; Enicol; Enteromycetin; Farmicetina; Fenicol; Globenicol; Interomycetine; Intramycetin; Intramyctin; Juvamycetin; Kamaver; Kemicetine; Klorita; Leukomycin; Levomicetina; Levomycetin; Loromicetina; Mycinol; Myscel; Novomycetin; Opclor; Ophthochlor; Pantovernil; Quemicetina; Ronfenil; Septicol; Sintomicetina; Sno Phenicol; Stanomycetin; synthomycetine; Tea-Cetin; Tevcocin; Tifomycine; Treomicetina; Unimycetin; Veticol; Viceton; Acetamide, 2,2-dichloro-N-[2-hydroxy-1-(hydroxymethyl)-2-(4-nitrophenyl)ethyl]-, [R-(R*,R*)]-; Ak-chlor; Alficetyn; Amphicol; Anacetin; Aquamycetin; Austracol; C.A.F.; Chemiceticol; Chlomycol; Chloramex; Chloramfilin; CHLORAMPHENICOL CRYSTALLINE; Chloramsaar; Chlorasol; Chlorocaps; Chlorocid; Chloricol; Chloromycetin; Chlormycetin R; Chloronitrin; Chloroptic; Chlorsig.

$$$$
245


 37 37  0  0  0  0  0  0  0  0999 V2000
   10.7099  -34.4859    0.1224 C   0  0  0  0  0  0  0  0  0  0  0  0
   11.1855  -35.6999   -0.1788 C   0  0  0  0  0  0  0  0  0  0  0  0
   13.5017  -34.9145    0.0039 C   0  0  0  0  0  0  0  0  0  0  0  0
   12.9568  -33.6004    0.3236 C   0  0  0  0  0  0  0  0  0  0  0  0
   12.6615  -35.9263   -0.2399 C   0  0  0  0  0  0  0  0  0  0  0  0
   11.6446  -33.3995    0.3806 C   0  0  0  0  0  0  0  0  0  0  0  0
   14.9188  -35.0747   -0.0375 N   0  0  0  0  0  0  0  0  0  0  0  0
   15.7494  -33.9176    0.3357 C   0  0  0  0  0  0  0  0  0  0  0  0
   15.5125  -36.3546   -0.4447 C   0  0  0  0  0  0  0  0  0  0  0  0
   16.9899  -33.6965   -0.5835 C   0  0  0  0  0  0  0  0  0  0  0  0
   16.6268  -36.8368    0.5413 C   0  0  0  0  0  0  0  0  0  0  0  0
   17.4394  -38.2584   -0.1203 Cl  0  0  0  0  0  0  0  0  0  0  0  0
   17.9131  -32.3135    0.0139 Cl  0  0  0  0  0  0  0  0  0  0  0  0
    9.2170  -34.1626    0.2082 C   0  0  0  0  0  0  0  0  0  0  0  0
    8.2429  -35.2727   -0.2638 C   0  0  2  0  0  0  0  0  0  0  0  0
    6.8245  -34.7544   -0.2005 C   0  0  0  0  0  0  0  0  0  0  0  0
    5.7567  -35.6401   -0.0909 O   0  0  0  0  0  0  0  0  0  0  0  0
    6.6109  -33.5362   -0.2364 O   0  0  0  0  0  0  0  0  0  0  0  0
    8.3540  -36.5458    0.4651 N   0  0  0  0  0  0  0  0  0  0  0  0
   10.5547  -36.4538   -0.3627 H   0  0  0  0  0  0  0  0  0  0  0  0
   13.5799  -32.8390    0.5027 H   0  0  0  0  0  0  0  0  0  0  0  0
   13.0203  -36.8327   -0.4625 H   0  0  0  0  0  0  0  0  0  0  0  0
   11.2942  -32.4900    0.6038 H   0  0  0  0  0  0  0  0  0  0  0  0
   15.1795  -33.0969    0.2955 H   0  0  0  0  0  0  0  0  0  0  0  0
   16.0734  -34.0535    1.2719 H   0  0  0  0  0  0  0  0  0  0  0  0
   14.7915  -37.0468   -0.4773 H   0  0  0  0  0  0  0  0  0  0  0  0
   15.9136  -36.2473   -1.3544 H   0  0  0  0  0  0  0  0  0  0  0  0
   17.5658  -34.5140   -0.5709 H   0  0  0  0  0  0  0  0  0  0  0  0
   16.6856  -33.5169   -1.5190 H   0  0  0  0  0  0  0  0  0  0  0  0
   17.2944  -36.1038    0.6713 H   0  0  0  0  0  0  0  0  0  0  0  0
   16.2126  -37.0710    1.4209 H   0  0  0  0  0  0  0  0  0  0  0  0
    9.0046  -33.9577    1.1636 H   0  0  0  0  0  0  0  0  0  0  0  0
    9.0487  -33.3518   -0.3525 H   0  0  0  0  0  0  0  0  0  0  0  0
    8.5051  -35.4889   -1.2043 H   0  0  0  0  0  0  0  0  0  0  0  0
    4.8989  -35.1269   -0.0623 H   0  0  0  0  0  0  0  0  0  0  0  0
    7.6932  -37.1999    0.0971 H   0  0  0  0  0  0  0  0  0  0  0  0
    8.1658  -36.3926    1.4352 H   0  0  0  0  0  0  0  0  0  0  0  0
  1  2  2  0  0  0  0
  3  4  1  0  0  0  0
  1  6  1  0  0  0  0
  2  5  1  0  0  0  0
  5  3  2  0  0  0  0
  4  6  2  0  0  0  0
  3  7  1  0  0  0  0
  7  8  1  0  0  0  0
  7  9  1  0  0  0  0
  8 10  1  0  0  0  0
  9 11  1  0  0  0  0
 11 12  1  0  0  0  0
 10 13  1  0  0  0  0
  1 14  1  0  0  0  0
 14 15  1  0  0  0  0
 15 16  1  0  0  0  0
 16 17  1  0  0  0  0
 16 18  2  0  0  0  0
 15 19  1  0  0  0  0
  2 20  1  0  0  0  0
  4 21  1  0  0  0  0
  5 22  1  0  0  0  0
  6 23  1  0  0  0  0
  8 24  1  0  0  0  0
  8 25  1  0  0  0  0
  9 26  1  0  0  0  0
  9 27  1  0  0  0  0
 10 28  1  0  0  0  0
 10 29  1  0  0  0  0
 11 30  1  0  0  0  0
 11 31  1  0  0  0  0
 14 32  1  0  0  0  0
 14 33  1  0  0  0  0
 15 34  1  0  0  0  0
 17 35  1  0  0  0  0
 19 36  1  0  0  0  0
 19 37  1  0  0  0  0
M  END
>  <Substance ID> (245)
245

>  <Mouse_Female_Canc> (245)
3

>  <SAL> (245)
3

>  <Rat_Male_Canc> (245)
3

>  <TD50_Rat> (245)
0.0938

>  <TD50_Mouse> (245)
0.15

>  <Rat_Female_Canc> (245)
3

>  <Canc> (245)
3

>  <MolWeight> (245)
305.20

>  <Mouse_Male_Canc> (245)
3

>  <Mouse_Male_NTP> (245)
ND

>  <ChemName> (245)
Melphalan

>  <Rat_Male_NTP> (245)
ND

>  <Reference> (245)
CPDB

>  <Formula> (245)
C13H18Cl2N2O2

>  <SMILES> (245)
ClCCN(C1=CC=C(C=C1)C[C@H](C(=O)O)N)CCCl

>  <Rat_Female_NTP> (245)
ND

>  <CAS> (245)
148-82-3

>  <Mouse_Female_NTP> (245)
ND

>  <Synonyms> (245)
3025 c.b.; 3-(p-(bis(2-chloroethyl)amino)phenyl)-L-alanine; 4-[bis(2-chloroethyl)amino]-L-Phenylalanine; p-L-sarcolysine; p-N-bis(2-chloroethyl)amino-L-phenylalanine; p-N-di(chloroethyl)aminophenylalanine; AT-290; cb 3025; L-3-(p-(bis(2-chloroethyl)amino)phenyl)alanine; L-PAM; L-phenylalanine mustard; L-sarcolysine; L-sarkolysin; melfalan; mephalan; phenylalanine mustard; phenylalanine nitrogen mustard; sarkolysin; sk-15673.

$$$$
246


 24 25  0  0  0  0  0  0  0  0999 V2000
    2.7739  -45.6790    0.0001 C   0  0  0  0  0  0  0  0  0  0  0  0
    4.1052  -45.6956   -0.0005 C   0  0  0  0  0  0  0  0  0  0  0  0
    4.2009  -43.2766    0.0001 C   0  0  0  0  0  0  0  0  0  0  0  0
    2.7376  -43.2582   -0.0003 C   0  0  0  0  0  0  0  0  0  0  0  0
    4.8534  -44.4377   -0.0003 C   0  0  0  0  0  0  0  0  0  0  0  0
    2.0579  -44.4036   -0.0002 C   0  0  0  0  0  0  0  0  0  0  0  0
    6.3161  -44.4548   -0.0000 C   0  0  0  0  0  0  0  0  0  0  0  0
    6.9687  -45.6156   -0.0003 C   0  0  0  0  0  0  0  0  0  0  0  0
    9.1116  -44.4880    0.0002 C   0  0  0  0  0  0  0  0  0  0  0  0
    8.3940  -43.2120   -0.0000 C   0  0  0  0  0  0  0  0  0  0  0  0
    8.4327  -45.6334   -0.0002 C   0  0  0  0  0  0  0  0  0  0  0  0
    7.0626  -43.1964    0.0007 C   0  0  0  0  0  0  0  0  0  0  0  0
   10.5076  -44.5037    0.0003 N   0  0  0  0  0  0  0  0  0  0  0  0
    2.2633  -46.5388    0.0008 H   0  0  0  0  0  0  0  0  0  0  0  0
    4.5941  -46.5679   -0.0011 H   0  0  0  0  0  0  0  0  0  0  0  0
    4.7114  -42.4167    0.0007 H   0  0  0  0  0  0  0  0  0  0  0  0
    2.2483  -42.3861   -0.0007 H   0  0  0  0  0  0  0  0  0  0  0  0
    1.0580  -44.3916   -0.0003 H   0  0  0  0  0  0  0  0  0  0  0  0
    6.4585  -46.4756   -0.0006 H   0  0  0  0  0  0  0  0  0  0  0  0
    8.9039  -42.3518   -0.0007 H   0  0  0  0  0  0  0  0  0  0  0  0
    8.9224  -46.5052   -0.0004 H   0  0  0  0  0  0  0  0  0  0  0  0
    6.5729  -42.3245    0.0017 H   0  0  0  0  0  0  0  0  0  0  0  0
   10.9978  -45.3752    0.0004 H   0  0  0  0  0  0  0  0  0  0  0  0
   11.0173  -43.6434    0.0002 H   0  0  0  0  0  0  0  0  0  0  0  0
  1  2  2  0  0  0  0
  3  4  1  0  0  0  0
  1  6  1  0  0  0  0
  2  5  1  0  0  0  0
  5  3  2  0  0  0  0
  4  6  2  0  0  0  0
  5  7  1  0  0  0  0
  7  8  2  0  0  0  0
  9 10  1  0  0  0  0
  7 12  1  0  0  0  0
  8 11  1  0  0  0  0
 11  9  2  0  0  0  0
 10 12  2  0  0  0  0
  9 13  1  0  0  0  0
  1 14  1  0  0  0  0
  2 15  1  0  0  0  0
  3 16  1  0  0  0  0
  4 17  1  0  0  0  0
  6 18  1  0  0  0  0
  8 19  1  0  0  0  0
 10 20  1  0  0  0  0
 11 21  1  0  0  0  0
 12 22  1  0  0  0  0
 13 23  1  0  0  0  0
 13 24  1  0  0  0  0
M  END
>  <Substance ID> (246)
246

>  <Mouse_Female_Canc> (246)
3

>  <SAL> (246)
3

>  <Rat_Male_Canc> (246)
ND

>  <TD50_Rat> (246)
ND

>  <TD50_Mouse> (246)
2.1

>  <Rat_Female_Canc> (246)
ND

>  <Canc> (246)
3

>  <MolWeight> (246)
169.23

>  <Mouse_Male_Canc> (246)
3

>  <Mouse_Male_NTP> (246)
ND

>  <ChemName> (246)
4-Aminodiphenyl

>  <Rat_Male_NTP> (246)
ND

>  <Reference> (246)
CPDB

>  <Formula> (246)
C12H11N

>  <SMILES> (246)
NC1=CC=C(C=C1)C2=CC=CC=C2

>  <Rat_Female_NTP> (246)
ND

>  <CAS> (246)
92-67-1

>  <Mouse_Female_NTP> (246)
ND

>  <Synonyms> (246)
[1,1'-Biphenyl]-4-amine; 4-Biphenylamine; p-phenylaniline; p-xenylamine; Aminobiphenyl; Xenylamine.

$$$$
247


 32 33  0  0  0  0  0  0  0  0999 V2000
    2.5585  -52.0543    0.0905 C   0  0  0  0  0  0  0  0  0  0  0  0
    2.3441  -53.3654   -0.0148 C   0  0  0  0  0  0  0  0  0  0  0  0
    3.4807  -54.2853   -0.0949 C   0  0  0  0  0  0  0  0  0  0  0  0
    3.9328  -51.5362    0.1362 C   0  0  0  0  0  0  0  0  0  0  0  0
    4.9612  -52.3805    0.0674 C   0  0  0  0  0  0  0  0  0  0  0  0
    4.7234  -53.8070   -0.0583 C   0  0  0  0  0  0  0  0  0  0  0  0
    7.1002  -54.2093   -0.1313 C   0  0  0  0  0  0  0  0  0  0  0  0
    7.3603  -52.7528    0.0124 C   0  0  0  0  0  0  0  0  0  0  0  0
    5.8608  -54.7026   -0.1546 C   0  0  0  0  0  0  0  0  0  0  0  0
    6.3432  -51.8896    0.1119 C   0  0  0  0  0  0  0  0  0  0  0  0
    8.7020  -52.2938    0.0416 N   0  0  0  0  0  0  0  0  0  0  0  0
    8.9973  -50.8942    0.3511 C   0  0  0  0  0  0  0  0  0  0  0  0
    9.7767  -53.2493   -0.2409 C   0  0  0  0  0  0  0  0  0  0  0  0
    9.8911  -50.2260   -0.7404 C   0  0  0  0  0  0  0  0  0  0  0  0
   10.4687  -48.6665   -0.1514 Cl  0  0  0  0  0  0  0  0  0  0  0  0
   11.0317  -53.0472    0.6603 C   0  0  0  0  0  0  0  0  0  0  0  0
   12.3213  -54.1204    0.1164 Cl  0  0  0  0  0  0  0  0  0  0  0  0
    1.7843  -51.4232    0.1384 H   0  0  0  0  0  0  0  0  0  0  0  0
    1.4095  -53.7201   -0.0391 H   0  0  0  0  0  0  0  0  0  0  0  0
    3.3243  -55.2696   -0.1768 H   0  0  0  0  0  0  0  0  0  0  0  0
    4.0957  -50.5530    0.2187 H   0  0  0  0  0  0  0  0  0  0  0  0
    7.8751  -54.8362   -0.2125 H   0  0  0  0  0  0  0  0  0  0  0  0
    5.7160  -55.6885   -0.2385 H   0  0  0  0  0  0  0  0  0  0  0  0
    6.5244  -50.9117    0.2165 H   0  0  0  0  0  0  0  0  0  0  0  0
    8.1362  -50.3899    0.4153 H   0  0  0  0  0  0  0  0  0  0  0  0
    9.4750  -50.8522    1.2286 H   0  0  0  0  0  0  0  0  0  0  0  0
    9.4260  -54.1742   -0.0941 H   0  0  0  0  0  0  0  0  0  0  0  0
   10.0519  -53.1444   -1.1965 H   0  0  0  0  0  0  0  0  0  0  0  0
   10.6724  -50.8175   -0.9395 H   0  0  0  0  0  0  0  0  0  0  0  0
    9.3546  -50.0900   -1.5732 H   0  0  0  0  0  0  0  0  0  0  0  0
   11.3388  -52.0977    0.5967 H   0  0  0  0  0  0  0  0  0  0  0  0
   10.7987  -53.2598    1.6093 H   0  0  0  0  0  0  0  0  0  0  0  0
  1  2  2  0  0  0  0
  1  4  1  0  0  0  0
  2  3  1  0  0  0  0
  3  6  2  0  0  0  0
  5  4  2  0  0  0  0
  5  6  1  0  0  0  0
  7  8  1  0  0  0  0
  5 10  1  0  0  0  0
  6  9  1  0  0  0  0
  9  7  2  0  0  0  0
  8 10  2  0  0  0  0
  8 11  1  0  0  0  0
 11 12  1  0  0  0  0
 11 13  1  0  0  0  0
 12 14  1  0  0  0  0
 14 15  1  0  0  0  0
 13 16  1  0  0  0  0
 16 17  1  0  0  0  0
  1 18  1  0  0  0  0
  2 19  1  0  0  0  0
  3 20  1  0  0  0  0
  4 21  1  0  0  0  0
  7 22  1  0  0  0  0
  9 23  1  0  0  0  0
 10 24  1  0  0  0  0
 12 25  1  0  0  0  0
 12 26  1  0  0  0  0
 13 27  1  0  0  0  0
 13 28  1  0  0  0  0
 14 29  1  0  0  0  0
 14 30  1  0  0  0  0
 16 31  1  0  0  0  0
 16 32  1  0  0  0  0
M  END
>  <Substance ID> (247)
247

>  <Mouse_Female_Canc> (247)
3

>  <SAL> (247)
3

>  <Rat_Male_Canc> (247)
3

>  <TD50_Rat> (247)
ND

>  <TD50_Mouse> (247)
ND

>  <Rat_Female_Canc> (247)
3

>  <Canc> (247)
3

>  <MolWeight> (247)
268.19

>  <Mouse_Male_Canc> (247)
3

>  <Mouse_Male_NTP> (247)
ND

>  <ChemName> (247)
Chlornaphazine

>  <Rat_Male_NTP> (247)
ND

>  <Reference> (247)
Toxnet

>  <Formula> (247)
C14H15Cl2N

>  <SMILES> (247)
ClCCN(CCCl)c2ccc1ccccc1c2

>  <Rat_Female_NTP> (247)
ND

>  <CAS> (247)
494-03-1

>  <Mouse_Female_NTP> (247)
ND

>  <Synonyms> (247)
2-bis(2-chloroethyl)aminonaphthalene; 2-naphthylamine mustard; 2-naphthylbis(2-chloroethyl)amine; Chlornapazine; bis(2-chloroethyl)-2-naphthylamine; bis(2-chloroethyl)-beta-naphthylamine; dichloroethyl-beta-naphthylamine; beta-naphthyl-di-(2-chloroethyl)amine; beta-naphthyl-bis-(beta-chloroethyl)amine; cb 1048; chloronaftina; chlornaphthazine; chloronaphthine; naphthylamine mustard; N,N-bis(2-chloroethyl)-2-Naphthalenamine; N,N-bis(2-chloroethyl)-2-naphthylamine; N,N-bis(2-chloroethyl)Naphthalenamine; R48.

$$$$
248


 56 59  0  0  0  0  0  0  0  0999 V2000
    3.5721  -61.4970   -0.3726 C   0  0  0  0  0  0  0  0  0  0  0  0
    3.5564  -62.8850    0.1197 C   0  0  0  0  0  0  0  0  0  0  0  0
    4.8358  -63.5544    0.5506 C   0  0  0  0  0  0  0  0  0  0  0  0
    4.8727  -60.7561   -0.5594 C   0  0  0  0  0  0  0  0  0  0  0  0
    6.0522  -61.3553    0.2543 C   0  0  1  0  0  0  0  0  0  0  0  0
    6.1183  -62.8675   -0.0140 C   0  0  2  0  0  0  0  0  0  0  0  0
    7.3506  -63.4978    0.6968 C   0  0  0  0  0  0  0  0  0  0  0  0
    8.6578  -62.8331    0.1960 C   0  0  0  0  0  0  0  0  0  0  0  0
    7.3665  -60.6880   -0.2440 C   0  0  2  0  0  0  0  0  0  0  0  0
    8.5928  -61.3159    0.4932 C   0  0  1  0  0  0  0  0  0  0  0  0
    8.6319  -58.4652   -0.4913 C   0  0  0  0  0  0  0  0  0  0  0  0
    7.3187  -59.1361    0.0265 C   0  0  0  0  0  0  0  0  0  0  0  0
    9.8239  -59.1054    0.2410 C   0  0  1  0  0  0  0  0  0  0  0  0
    9.8551  -60.6099   -0.0139 C   0  0  2  0  0  0  0  0  0  0  0  0
   11.1826  -61.0214    0.6877 C   0  0  0  0  0  0  0  0  0  0  0  0
   12.0906  -59.6998    0.5686 C   0  0  0  0  0  0  0  0  0  0  0  0
   11.2342  -58.7093   -0.2841 C   0  0  1  0  0  0  0  0  0  0  0  0
    5.8566  -61.0894    1.7866 C   0  0  0  0  0  0  0  0  0  0  0  0
    9.7397  -58.7856    1.7681 C   0  0  0  0  0  0  0  0  0  0  0  0
   11.5661  -57.3372   -0.0694 O   0  0  0  0  0  0  0  0  0  0  0  0
   11.4249  -59.0018   -1.8031 C   0  0  0  0  0  0  0  0  0  0  0  0
    2.4297  -60.8936   -0.6873 C   0  0  0  0  0  0  0  0  0  0  0  0
    2.4801  -63.4804    0.2519 O   0  0  0  0  0  0  0  0  0  0  0  0
    2.4462  -59.5833   -1.1630 O   0  0  0  0  0  0  0  0  0  0  0  0
    6.2001  -63.0194   -1.0993 H   0  0  0  0  0  0  0  0  0  0  0  0
    7.4788  -60.8647   -1.3236 H   0  0  0  0  0  0  0  0  0  0  0  0
    9.9310  -60.7852   -1.0811 H   0  0  0  0  0  0  0  0  0  0  0  0
    8.4992  -61.1583    1.5699 H   0  0  0  0  0  0  0  0  0  0  0  0
    4.8812  -63.5371    1.5494 H   0  0  0  0  0  0  0  0  0  0  0  0
    4.8191  -64.5027    0.2336 H   0  0  0  0  0  0  0  0  0  0  0  0
    5.1137  -60.7803   -1.5297 H   0  0  0  0  0  0  0  0  0  0  0  0
    4.7402  -59.8075   -0.2720 H   0  0  0  0  0  0  0  0  0  0  0  0
    7.2679  -63.3606    1.6838 H   0  0  0  0  0  0  0  0  0  0  0  0
    7.3812  -64.4772    0.4973 H   0  0  0  0  0  0  0  0  0  0  0  0
    9.4416  -63.2348    0.6697 H   0  0  0  0  0  0  0  0  0  0  0  0
    8.7526  -62.9786   -0.7888 H   0  0  0  0  0  0  0  0  0  0  0  0
    8.6070  -57.4835   -0.3023 H   0  0  0  0  0  0  0  0  0  0  0  0
    8.7214  -58.6133   -1.4762 H   0  0  0  0  0  0  0  0  0  0  0  0
    6.5339  -58.7405   -0.4507 H   0  0  0  0  0  0  0  0  0  0  0  0
    7.2285  -58.9735    1.0091 H   0  0  0  0  0  0  0  0  0  0  0  0
   11.6110  -61.7935    0.2183 H   0  0  0  0  0  0  0  0  0  0  0  0
   11.0221  -61.2602    1.6454 H   0  0  0  0  0  0  0  0  0  0  0  0
   12.2768  -59.3168    1.4733 H   0  0  0  0  0  0  0  0  0  0  0  0
   12.9545  -59.9054    0.1089 H   0  0  0  0  0  0  0  0  0  0  0  0
    6.6239  -61.4814    2.2940 H   0  0  0  0  0  0  0  0  0  0  0  0
    5.0040  -61.5130    2.0927 H   0  0  0  0  0  0  0  0  0  0  0  0
    5.8169  -60.1039    1.9520 H   0  0  0  0  0  0  0  0  0  0  0  0
   10.5160  -59.2034    2.2400 H   0  0  0  0  0  0  0  0  0  0  0  0
    8.8872  -59.1534    2.1396 H   0  0  0  0  0  0  0  0  0  0  0  0
    9.7618  -57.7950    1.9034 H   0  0  0  0  0  0  0  0  0  0  0  0
   10.9846  -56.7595   -0.6421 H   0  0  0  0  0  0  0  0  0  0  0  0
   10.8726  -58.3624   -2.3381 H   0  0  0  0  0  0  0  0  0  0  0  0
   11.1357  -59.9382   -2.0017 H   0  0  0  0  0  0  0  0  0  0  0  0
   12.3889  -58.8925   -2.0456 H   0  0  0  0  0  0  0  0  0  0  0  0
    1.5613  -61.3783   -0.5830 H   0  0  0  0  0  0  0  0  0  0  0  0
    1.5105  -59.2841   -1.3498 H   0  0  0  0  0  0  0  0  0  0  0  0
  1  2  1  0  0  0  0
  1  4  1  0  0  0  0
  2  3  1  0  0  0  0
  3  6  1  0  0  0  0
  5  4  1  0  0  0  0
  5  6  1  0  0  0  0
  5  9  1  0  0  0  0
  6  7  1  0  0  0  0
  7  8  1  0  0  0  0
  8 10  1  0  0  0  0
  9 10  1  0  0  0  0
  9 12  1  0  0  0  0
 10 14  1  0  0  0  0
 13 11  1  0  0  0  0
 11 12  1  0  0  0  0
 13 14  1  0  0  0  0
 15 16  1  0  0  0  0
 16 17  1  0  0  0  0
 17 13  1  0  0  0  0
 14 15  1  0  0  0  0
  5 18  1  1  0  0  0
 13 19  1  1  0  0  0
 17 20  1  1  0  0  0
 17 21  1  6  0  0  0
  1 22  2  0  0  0  0
  2 23  2  0  0  0  0
 22 24  1  0  0  0  0
  6 25  1  6  0  0  0
  9 26  1  6  0  0  0
 14 27  1  6  0  0  0
 10 28  1  1  0  0  0
  3 29  1  0  0  0  0
  3 30  1  0  0  0  0
  4 31  1  0  0  0  0
  4 32  1  0  0  0  0
  7 33  1  0  0  0  0
  7 34  1  0  0  0  0
  8 35  1  0  0  0  0
  8 36  1  0  0  0  0
 11 37  1  0  0  0  0
 11 38  1  0  0  0  0
 12 39  1  0  0  0  0
 12 40  1  0  0  0  0
 15 41  1  0  0  0  0
 15 42  1  0  0  0  0
 16 43  1  0  0  0  0
 16 44  1  0  0  0  0
 18 45  1  0  0  0  0
 18 46  1  0  0  0  0
 18 47  1  0  0  0  0
 19 48  1  0  0  0  0
 19 49  1  0  0  0  0
 19 50  1  0  0  0  0
 20 51  1  0  0  0  0
 21 52  1  0  0  0  0
 21 53  1  0  0  0  0
 21 54  1  0  0  0  0
 22 55  1  0  0  0  0
 24 56  1  0  0  0  0
M  END
>  <Substance ID> (248)
248

>  <Mouse_Female_Canc> (248)
ND

>  <SAL> (248)
1

>  <Rat_Male_Canc> (248)
2

>  <TD50_Rat> (248)
ND

>  <TD50_Mouse> (248)
ND

>  <Rat_Female_Canc> (248)
3

>  <Canc> (248)
3

>  <MolWeight> (248)
332.49

>  <Mouse_Male_Canc> (248)
ND

>  <Mouse_Male_NTP> (248)
ND

>  <ChemName> (248)
Oxymetholone

>  <Rat_Male_NTP> (248)
EE

>  <Reference> (248)
NTP485

>  <Formula> (248)
C21H32O3 

>  <SMILES> (248)
O=C4\C(=C\O)C[C@]1([C@@H](CC[C@@H]2[C@@H]1CC[C@@]3([C@](O)(C)CC[C@@H]23)C)C4)C

>  <Rat_Female_NTP> (248)
CE

>  <CAS> (248)
434-07-1

>  <Mouse_Female_NTP> (248)
ND

>  <Synonyms> (248)
17alpha-methyl-2-hydroxymethylene-17-hydroxy-5alpha-androstan-3-one; 17b-hydroxy-2-hydroxymethylene-17a-methyl-3-androstanone; 17beta-hydroxy-2-(hydroxymethylene)-17alpha-methyl-5alpha-androstan-3-one; 17beta-Hydroxy-2-(hydroxymethylene)-17-methyl-5alpha-androstan-3-one; 17-hydroxy-2-(hydroxymethylene)-17-methyl-5alpha-17beta-androst-3-one; 17-hydroxy-2-(hydroxymethylene)-17-methyl-5alpha,17beta-androstan-3-one; 2-hydroxymethylene-17alpha-methyl-17beta-hydroxy-3-androstanone; 2-hydroxymethylene-17alpha-methyl-5alpha-androstan-17beta-ol-3-one; 2-hydroxymethylene-17a-methyl dihydrotestosterone; 4,5-dihydro-2-hydroxymethylene-17-alpha-methyltestosterone; adroidin; adroyd; anadrol; anadroyd; anapolon; Anapolon 50; anasterone; anasteronal; androstan-3-one, 17-hydroxy-2-(hydroxymethylene)-17-methyl-,(5alpha,17beta)-; androstano[2,3-c][1,2,5]oxadiazol-17-ol, 17-methyl-, (5alpha,17beta)-; becorel; CI-406; dynasten; HMD; methabol; nastenon; oximetholonum; oximetolona; oxitosona-50; oxymethalone; oxymethenolone; Pavisoid; plenastril; protanabol; roboral; synasteron; zenalosyn.

$$$$
249


 28 27  0  0  0  0  0  0  0  0999 V2000
   10.1355  -79.0672   -0.1581 C   0  0  0  0  0  0  0  0  0  0  0  0
   11.2127  -78.6964    0.6973 O   0  0  0  0  0  0  0  0  0  0  0  0
   12.6772  -79.0075   -0.1013 S   0  0  0  0  0  0  0  0  0  0  0  0
   14.0635  -78.5338    0.9608 C   0  0  0  0  0  0  0  0  0  0  0  0
    8.8043  -78.7692    0.5368 C   0  0  0  0  0  0  0  0  0  0  0  0
    7.6584  -79.1575   -0.4075 C   0  0  0  0  0  0  0  0  0  0  0  0
    6.3150  -78.8459    0.2565 C   0  0  0  0  0  0  0  0  0  0  0  0
    5.2673  -79.1954   -0.6455 O   0  0  0  0  0  0  0  0  0  0  0  0
    3.7688  -78.8256    0.0582 S   0  0  0  0  0  0  0  0  0  0  0  0
    2.4397  -79.2517   -1.0937 C   0  0  0  0  0  0  0  0  0  0  0  0
    3.7159  -77.3422    0.3695 O   0  0  0  0  0  0  0  0  0  0  0  0
    3.6061  -79.6187    1.3404 O   0  0  0  0  0  0  0  0  0  0  0  0
   12.7235  -78.2050   -1.3871 O   0  0  0  0  0  0  0  0  0  0  0  0
   12.7654  -80.4866   -0.4256 O   0  0  0  0  0  0  0  0  0  0  0  0
   10.1911  -78.5449   -1.0091 H   0  0  0  0  0  0  0  0  0  0  0  0
   10.1933  -80.0445   -0.3618 H   0  0  0  0  0  0  0  0  0  0  0  0
   14.9248  -78.7182    0.4875 H   0  0  0  0  0  0  0  0  0  0  0  0
   14.0299  -79.0624    1.8090 H   0  0  0  0  0  0  0  0  0  0  0  0
   14.0029  -77.5585    1.1737 H   0  0  0  0  0  0  0  0  0  0  0  0
    8.7393  -79.3010    1.3812 H   0  0  0  0  0  0  0  0  0  0  0  0
    8.7477  -77.7941    0.7512 H   0  0  0  0  0  0  0  0  0  0  0  0
    7.7376  -78.6371   -1.2577 H   0  0  0  0  0  0  0  0  0  0  0  0
    7.7107  -80.1357   -0.6088 H   0  0  0  0  0  0  0  0  0  0  0  0
    6.2248  -79.3772    1.0989 H   0  0  0  0  0  0  0  0  0  0  0  0
    6.2636  -77.8704    0.4701 H   0  0  0  0  0  0  0  0  0  0  0  0
    1.5561  -79.0338   -0.6792 H   0  0  0  0  0  0  0  0  0  0  0  0
    2.4781  -80.2293   -1.3009 H   0  0  0  0  0  0  0  0  0  0  0  0
    2.5493  -78.7278   -1.9384 H   0  0  0  0  0  0  0  0  0  0  0  0
  1  2  1  0  0  0  0
  2  3  1  0  0  0  0
  3  4  1  0  0  0  0
  1  5  1  0  0  0  0
  5  6  1  0  0  0  0
  6  7  1  0  0  0  0
  7  8  1  0  0  0  0
  9  8  1  0  0  0  0
  9 10  1  0  0  0  0
  9 11  2  0  0  0  0
  9 12  2  0  0  0  0
  3 13  2  0  0  0  0
  3 14  2  0  0  0  0
  1 15  1  0  0  0  0
  1 16  1  0  0  0  0
  4 17  1  0  0  0  0
  4 18  1  0  0  0  0
  4 19  1  0  0  0  0
  5 20  1  0  0  0  0
  5 21  1  0  0  0  0
  6 22  1  0  0  0  0
  6 23  1  0  0  0  0
  7 24  1  0  0  0  0
  7 25  1  0  0  0  0
 10 26  1  0  0  0  0
 10 27  1  0  0  0  0
 10 28  1  0  0  0  0
M  END
>  <Substance ID> (249)
249

>  <Mouse_Female_Canc> (249)
3

>  <SAL> (249)
3

>  <Rat_Male_Canc> (249)
1

>  <TD50_Rat> (249)
NP

>  <TD50_Mouse> (249)
ND

>  <Rat_Female_Canc> (249)
ND

>  <Canc> (249)
3

>  <MolWeight> (249)
246.29

>  <Mouse_Male_Canc> (249)
ND

>  <Mouse_Male_NTP> (249)
ND

>  <ChemName> (249)
Myleran

>  <Rat_Male_NTP> (249)
ND

>  <Reference> (249)
CPDB & IARC

>  <Formula> (249)
C6H14O6S2

>  <SMILES> (249)
O(S(=O)(=O)C)CCCCOS(=O)(C)=O

>  <Rat_Female_NTP> (249)
ND

>  <CAS> (249)
55-98-1

>  <Mouse_Female_NTP> (249)
ND

>  <Synonyms> (249)
1,4-Dimesyloxybutane; 1,4-Bis(methanesulfonyloxy)butane; 1,4-Di(methylsulfonoxy)butane; 1,4-Dimethylsulfonyloxybutane; 1,4-Butanediol dimethanesulfonate; 1,4-Butanediol dimethylsulfonate; 1,4-Butanediyl dimethanesulfonate; 2041 C. B.; AN 33501; Busulfan; BUSULFAN (1,4-BUTANEDIOL, DIMETHANESULFONATE); Buzulfan; c.b. 2041; Citosulfan; gt 2041; GT 41; Leucosulfan; Mablin; Methanesulfonic acid, tetramethylene ester; Mielevcin; Mielosan; Mielucin; Milecitan; Mileran; Misulban; Mitostan; Myeloleukon; Myelosan; Mylecytan; Mylerlan; Sulfabutin; Tetramethylene bis[methanesulfonate]; X 149.

$$$$
250


  5  4  0  0  0  0  0  0  0  0999 V2000
    3.7052  -96.3875   -0.0000 C   0  0  0  0  0  0  0  0  0  0  0  0
    5.1441  -96.3402    1.0245 Cl  0  0  0  0  0  0  0  0  0  0  0  0
    3.7112  -94.9955   -1.0885 Cl  0  0  0  0  0  0  0  0  0  0  0  0
    3.7069  -97.8777   -0.9495 Cl  0  0  0  0  0  0  0  0  0  0  0  0
    2.2587  -96.3364    1.0134 Cl  0  0  0  0  0  0  0  0  0  0  0  0
  1  2  1  0  0  0  0
  1  3  1  0  0  0  0
  1  4  1  0  0  0  0
  1  5  1  0  0  0  0
M  END
>  <Substance ID> (250)
250

>  <Mouse_Female_Canc> (250)
3

>  <SAL> (250)
1

>  <Rat_Male_Canc> (250)
3

>  <TD50_Rat> (250)
2.29

>  <TD50_Mouse> (250)
150

>  <Rat_Female_Canc> (250)
3

>  <Canc> (250)
3

>  <MolWeight> (250)
153.82

>  <Mouse_Male_Canc> (250)
3

>  <Mouse_Male_NTP> (250)
ND

>  <ChemName> (250)
Carbon tetrachloride 

>  <Rat_Male_NTP> (250)
ND

>  <Reference> (250)
CPDB

>  <Formula> (250)
CCl4

>  <SMILES> (250)
ClC(Cl)(Cl)Cl

>  <Rat_Female_NTP> (250)
ND

>  <CAS> (250)
56-23-5

>  <Mouse_Female_NTP> (250)
ND

>  <Synonyms> (250)
Benzinoform; carbona; carbon chloride; Carbon tet; flukoids; Methane tetrachloride; necatorine; Necatorina; Perchloromethane; R 10; r 10 (refrigerant); Refrigerant R10; tetrachlorocarbon; Tetrachloromethane; tetrafinol; tetraform; tetrasol; univerm; vermoestricid.

$$$$
251


  8  7  0  0  0  0  0  0  0  0999 V2000
   39.5899   -3.1071   -0.4510 C   0  0  0  0  0  0  0  0  0  0  0  0
   40.8677   -2.8613    0.3727 C   0  0  0  0  0  0  0  0  0  0  0  0
   41.7811   -4.3678    0.5081 Cl  0  0  0  0  0  0  0  0  0  0  0  0
   41.8606   -1.6394   -0.4294 Cl  0  0  0  0  0  0  0  0  0  0  0  0
   39.0730   -2.2546   -0.5276 H   0  0  0  0  0  0  0  0  0  0  0  0
   39.0274   -3.7978    0.0035 H   0  0  0  0  0  0  0  0  0  0  0  0
   39.8385   -3.4288   -1.3647 H   0  0  0  0  0  0  0  0  0  0  0  0
   40.6181   -2.5401    1.2863 H   0  0  0  0  0  0  0  0  0  0  0  0
  1  2  1  0  0  0  0
  2  3  1  0  0  0  0
  2  4  1  0  0  0  0
  1  5  1  0  0  0  0
  1  6  1  0  0  0  0
  1  7  1  0  0  0  0
  2  8  1  0  0  0  0
M  END
>  <Substance ID> (251)
251

>  <Mouse_Female_Canc> (251)
2

>  <SAL> (251)
1

>  <Rat_Male_Canc> (251)
1

>  <TD50_Rat> (251)
NP

>  <TD50_Mouse> (251)
NP

>  <Rat_Female_Canc> (251)
2

>  <Canc> (251)
2

>  <MolWeight> (251)
98.96

>  <Mouse_Male_Canc> (251)
1

>  <Mouse_Male_NTP> (251)
ND

>  <ChemName> (251)
1,1-dichloroethane

>  <Rat_Male_NTP> (251)
ND

>  <Reference> (251)
NTP66

>  <Formula> (251)
C2H4Cl2

>  <SMILES> (251)
CC(Cl)Cl

>  <Rat_Female_NTP> (251)
ND

>  <CAS> (251)
75-34-3

>  <Mouse_Female_NTP> (251)
ND

>  <Synonyms> (251)
1,1-Ethylidene dichloride; Dichloroethane, 1,1-; chlorinated hydrochloric ether; Ethylidene Dichloride; Ethylidene Chloride.

$$$$
252


  8  7  0  0  0  0  0  0  0  0999 V2000
   35.3597   -8.2939    0.0000 C   0  0  0  0  0  0  0  0  0  0  0  0
   36.5971   -9.2105   -0.0002 C   0  0  0  0  0  0  0  0  0  0  0  0
   38.0625   -8.2232    0.0003 Cl  0  0  0  0  0  0  0  0  0  0  0  0
   33.8942   -9.2812   -0.0007 Cl  0  0  0  0  0  0  0  0  0  0  0  0
   35.3724   -7.7173    0.8170 H   0  0  0  0  0  0  0  0  0  0  0  0
   35.3727   -7.7165   -0.8163 H   0  0  0  0  0  0  0  0  0  0  0  0
   36.5842   -9.7879    0.8162 H   0  0  0  0  0  0  0  0  0  0  0  0
   36.5843   -9.7872   -0.8171 H   0  0  0  0  0  0  0  0  0  0  0  0
  1  2  1  0  0  0  0
  2  3  1  0  0  0  0
  1  4  1  0  0  0  0
  1  5  1  0  0  0  0
  1  6  1  0  0  0  0
  2  7  1  0  0  0  0
  2  8  1  0  0  0  0
M  END
>  <Substance ID> (252)
252

>  <Mouse_Female_Canc> (252)
3

>  <SAL> (252)
3

>  <Rat_Male_Canc> (252)
3

>  <TD50_Rat> (252)
8.04

>  <TD50_Mouse> (252)
101

>  <Rat_Female_Canc> (252)
3

>  <Canc> (252)
3

>  <MolWeight> (252)
98.96

>  <Mouse_Male_Canc> (252)
3

>  <Mouse_Male_NTP> (252)
ND

>  <ChemName> (252)
1,2-Dichloroethane

>  <Rat_Male_NTP> (252)
ND

>  <Reference> (252)
NTP55

>  <Formula> (252)
C2H4Cl2

>  <SMILES> (252)
ClCCCl

>  <Rat_Female_NTP> (252)
ND

>  <CAS> (252)
107-06-2

>  <Mouse_Female_NTP> (252)
ND

>  <Synonyms> (252)
1,2-DCE; 1,2-Ethylene dichloride; 1,2-Ethylidene dichloride; 2-Dichloroethane; alpha, beta-dichloroethane; dichloremulsion; Dichloroethane, 1,2-; di-chlor-mulsion; borer sol; Brocide; destruxol borer-sol; Dutch liquid; Dutch oil; EDC; Ethane dichloride; Ethylene dichloride; Ethylene chloride; Freon 150; glycol dichloride; sym-dichloroethane.

$$$$
253


  6  5  0  0  0  0  0  0  0  0999 V2000
   37.5069  -23.5689    0.0006 C   0  0  0  0  0  0  0  0  0  0  0  0
   36.2472  -23.1381   -0.0006 C   0  0  0  0  0  0  0  0  0  0  0  0
   38.8090  -22.4321   -0.0002 Cl  0  0  0  0  0  0  0  0  0  0  0  0
   37.6998  -24.5501    0.0021 H   0  0  0  0  0  0  0  0  0  0  0  0
   35.4939  -23.7957   -0.0001 H   0  0  0  0  0  0  0  0  0  0  0  0
   36.0543  -22.1569   -0.0020 H   0  0  0  0  0  0  0  0  0  0  0  0
  1  2  2  0  0  0  0
  1  3  1  0  0  0  0
  1  4  1  0  0  0  0
  2  5  1  0  0  0  0
  2  6  1  0  0  0  0
M  END
>  <Substance ID> (253)
253

>  <Mouse_Female_Canc> (253)
3

>  <SAL> (253)
3

>  <Rat_Male_Canc> (253)
3

>  <TD50_Rat> (253)
19.1

>  <TD50_Mouse> (253)
20.9

>  <Rat_Female_Canc> (253)
3

>  <Canc> (253)
3

>  <MolWeight> (253)
62.50

>  <Mouse_Male_Canc> (253)
3

>  <Mouse_Male_NTP> (253)
ND

>  <ChemName> (253)
Vinyl Chloride

>  <Rat_Male_NTP> (253)
ND

>  <Reference> (253)
CPDB

>  <Formula> (253)
C2H3Cl

>  <SMILES> (253)
C=CCl

>  <Rat_Female_NTP> (253)
ND

>  <CAS> (253)
75-01-4

>  <Mouse_Female_NTP> (253)
ND

>  <Synonyms> (253)
Chloroethene; chloroethylene; ethylene monochloride; Monochloroethene; Monochloroethylene; VC; VCM; Vinyl C.

$$$$
254


 17 17  0  0  0  0  0  0  0  0999 V2000
   37.1703  -38.8837   -0.0011 C   0  0  0  0  0  0  0  0  0  0  0  0
   37.1851  -40.2138   -0.0004 C   0  0  0  0  0  0  0  0  0  0  0  0
   39.6059  -40.2559   -0.0002 C   0  0  0  0  0  0  0  0  0  0  0  0
   39.5914  -38.7924    0.0002 C   0  0  0  0  0  0  0  0  0  0  0  0
   38.4594  -40.9328    0.0001 C   0  0  0  0  0  0  0  0  0  0  0  0
   38.4312  -38.1387    0.0002 C   0  0  0  0  0  0  0  0  0  0  0  0
   38.4181  -36.7476    0.0007 O   0  0  0  0  0  0  0  0  0  0  0  0
   40.7930  -38.0824    0.0001 N   0  0  0  0  0  0  0  0  0  0  0  0
   35.9829  -40.9242   -0.0001 N   0  3  0  0  0  0  0  0  0  0  0  0
   34.8281  -40.2755   -0.0016 O   0  5  0  0  0  0  0  0  0  0  0  0
   35.9961  -42.1001    0.0008 O   0  0  0  0  0  0  0  0  0  0  0  0
   36.2990  -38.3929   -0.0026 H   0  0  0  0  0  0  0  0  0  0  0  0
   40.4768  -40.7474   -0.0005 H   0  0  0  0  0  0  0  0  0  0  0  0
   38.4692  -41.9327    0.0005 H   0  0  0  0  0  0  0  0  0  0  0  0
   39.3575  -36.4049    0.0016 H   0  0  0  0  0  0  0  0  0  0  0  0
   40.7828  -37.0824    0.0003 H   0  0  0  0  0  0  0  0  0  0  0  0
   41.6640  -38.5735   -0.0002 H   0  0  0  0  0  0  0  0  0  0  0  0
  1  2  2  0  0  0  0
  3  4  1  0  0  0  0
  1  6  1  0  0  0  0
  2  5  1  0  0  0  0
  5  3  2  0  0  0  0
  4  6  2  0  0  0  0
  6  7  1  0  0  0  0
  4  8  1  0  0  0  0
  9 10  1  0  0  0  0
  9 11  2  0  0  0  0
  2  9  1  0  0  0  0
  1 12  1  0  0  0  0
  3 13  1  0  0  0  0
  5 14  1  0  0  0  0
  7 15  1  0  0  0  0
  8 16  1  0  0  0  0
  8 17  1  0  0  0  0
M  END
>  <Substance ID> (254)
254

>  <Mouse_Female_Canc> (254)
1

>  <SAL> (254)
3

>  <Rat_Male_Canc> (254)
3

>  <TD50_Rat> (254)
111

>  <TD50_Mouse> (254)
NP

>  <Rat_Female_Canc> (254)
1

>  <Canc> (254)
3

>  <MolWeight> (254)
154.13

>  <Mouse_Male_Canc> (254)
1

>  <Mouse_Male_NTP> (254)
NE

>  <ChemName> (254)
2-Amino-5-nitrophenol

>  <Rat_Male_NTP> (254)
SE

>  <Reference> (254)
NTP334

>  <Formula> (254)
C6H6N2O3

>  <SMILES> (254)
O=[N+](C1=CC(=C(C=C1)N)O)[O-]

>  <Rat_Female_NTP> (254)
NE

>  <CAS> (254)
121-88-0

>  <Mouse_Female_NTP> (254)
NE

>  <Synonyms> (254)
2-hydroxy-4-nitroaniline; 5-nitro-2-aminophenol; C.I. 76535; rodol yba; ursol yellow brown a.

$$$$
255


 43 45  0  0  0  0  0  0  0  0999 V2000
   35.5785  -49.7712    0.0987 C   0  0  0  0  0  0  0  0  0  0  0  0
   34.5873  -48.9061    0.3136 C   0  0  0  0  0  0  0  0  0  0  0  0
   32.9238  -50.6631    0.2602 C   0  0  0  0  0  0  0  0  0  0  0  0
   34.0068  -51.6210    0.0244 C   0  0  0  0  0  0  0  0  0  0  0  0
   33.2018  -49.3690    0.3998 C   0  0  0  0  0  0  0  0  0  0  0  0
   35.2686  -51.1988   -0.0519 C   0  0  0  0  0  0  0  0  0  0  0  0
   39.4250  -49.7586    0.1958 N   0  0  0  0  0  0  0  0  0  0  0  0
   38.1492  -50.2236   -0.0781 C   0  0  0  0  0  0  0  0  0  0  0  0
   36.9961  -49.2285   -0.0015 C   0  0  1  0  0  0  0  0  0  0  0  0
   37.9928  -51.3808   -0.4775 O   0  0  0  0  0  0  0  0  0  0  0  0
   37.2455  -48.1888    1.0029 N   0  0  0  0  0  0  0  0  0  0  0  0
   40.5546  -50.2880   -0.4989 C   0  0  2  0  0  0  0  0  0  0  0  0
   41.4992  -51.2846   -0.0210 C   0  0  0  0  0  0  0  0  0  0  0  0
   41.3364  -52.2977    0.6652 O   0  0  0  0  0  0  0  0  0  0  0  0
   41.8937  -49.3786   -0.4496 C   0  0  2  0  0  0  0  0  0  0  0  0
   42.6438  -50.6171   -0.3828 N   0  0  0  0  0  0  0  0  0  0  0  0
   43.8807  -50.7027    0.3228 C   0  0  2  0  0  0  0  0  0  0  0  0
   44.1827  -49.2038    0.6666 C   0  0  0  0  0  0  0  0  0  0  0  0
   42.5286  -48.7741    1.1545 S   0  0  0  0  0  0  0  0  0  0  0  0
   44.5350  -48.3569   -0.5838 C   0  0  0  0  0  0  0  0  0  0  0  0
   45.2840  -49.0408    1.7299 C   0  0  0  0  0  0  0  0  0  0  0  0
   40.3010  -50.6426   -1.5095 H   0  0  0  0  0  0  0  0  0  0  0  0
   42.0165  -48.6323   -1.2444 H   0  0  0  0  0  0  0  0  0  0  0  0
   44.9757  -51.4582   -0.4052 C   0  0  0  0  0  0  0  0  0  0  0  0
   44.9356  -52.8424   -0.4524 O   0  0  0  0  0  0  0  0  0  0  0  0
   45.9059  -50.8618   -0.9591 O   0  0  0  0  0  0  0  0  0  0  0  0
   34.7922  -47.9327    0.4168 H   0  0  0  0  0  0  0  0  0  0  0  0
   31.9773  -50.9810    0.3162 H   0  0  0  0  0  0  0  0  0  0  0  0
   33.7989  -52.5936   -0.0795 H   0  0  0  0  0  0  0  0  0  0  0  0
   32.4644  -48.7136    0.5633 H   0  0  0  0  0  0  0  0  0  0  0  0
   36.0057  -51.8553   -0.2121 H   0  0  0  0  0  0  0  0  0  0  0  0
   39.5559  -49.0465    0.8855 H   0  0  0  0  0  0  0  0  0  0  0  0
   37.0036  -48.8341   -0.9205 H   0  0  0  0  0  0  0  0  0  0  0  0
   36.4722  -47.5553    1.0267 H   0  0  0  0  0  0  0  0  0  0  0  0
   38.0784  -47.6886    0.7659 H   0  0  0  0  0  0  0  0  0  0  0  0
   43.8287  -51.2678    1.1462 H   0  0  0  0  0  0  0  0  0  0  0  0
   44.7175  -47.4134   -0.3073 H   0  0  0  0  0  0  0  0  0  0  0  0
   43.7677  -48.3733   -1.2250 H   0  0  0  0  0  0  0  0  0  0  0  0
   45.3471  -48.7371   -1.0265 H   0  0  0  0  0  0  0  0  0  0  0  0
   45.4340  -48.0685    1.9088 H   0  0  0  0  0  0  0  0  0  0  0  0
   46.1325  -49.4529    1.3976 H   0  0  0  0  0  0  0  0  0  0  0  0
   45.0020  -49.4951    2.5750 H   0  0  0  0  0  0  0  0  0  0  0  0
   45.7237  -53.1818   -0.9658 H   0  0  0  0  0  0  0  0  0  0  0  0
  1  2  2  0  0  0  0
  3  4  1  0  0  0  0
  1  6  1  0  0  0  0
  2  5  1  0  0  0  0
  5  3  2  0  0  0  0
  4  6  2  0  0  0  0
  7  8  1  0  0  0  0
  8  9  1  0  0  0  0
  8 10  2  0  0  0  0
  9  1  1  0  0  0  0
  9 11  1  1  0  0  0
  7 12  1  0  0  0  0
 12 13  1  0  0  0  0
 13 16  1  0  0  0  0
 15 12  1  0  0  0  0
 13 14  2  0  0  0  0
 15 16  1  0  0  0  0
 17 18  1  0  0  0  0
 18 19  1  0  0  0  0
 19 15  1  0  0  0  0
 16 17  1  0  0  0  0
 18 20  1  0  0  0  0
 18 21  1  0  0  0  0
 12 22  1  6  0  0  0
 15 23  1  6  0  0  0
 17 24  1  6  0  0  0
 24 25  1  0  0  0  0
 24 26  2  0  0  0  0
  2 27  1  0  0  0  0
  3 28  1  0  0  0  0
  4 29  1  0  0  0  0
  5 30  1  0  0  0  0
  6 31  1  0  0  0  0
  7 32  1  0  0  0  0
  9 33  1  0  0  0  0
 11 34  1  0  0  0  0
 11 35  1  0  0  0  0
 17 36  1  0  0  0  0
 20 37  1  0  0  0  0
 20 38  1  0  0  0  0
 20 39  1  0  0  0  0
 21 40  1  0  0  0  0
 21 41  1  0  0  0  0
 21 42  1  0  0  0  0
 25 43  1  0  0  0  0
M  END
>  <Substance ID> (255)
255

>  <Mouse_Female_Canc> (255)
1

>  <SAL> (255)
1

>  <Rat_Male_Canc> (255)
2

>  <TD50_Rat> (255)
NP

>  <TD50_Mouse> (255)
NP

>  <Rat_Female_Canc> (255)
1

>  <Canc> (255)
2

>  <MolWeight> (255)
403.4

>  <Mouse_Male_Canc> (255)
1

>  <Mouse_Male_NTP> (255)
NE

>  <ChemName> (255)
Ampicillin trihydrate

>  <Rat_Male_NTP> (255)
EE

>  <Reference> (255)
NTP318

>  <Formula> (255)
C16H19N3O4S.3H2O

>  <SMILES> (255)
O=C(O)[C@@H]2N3C(=O)[C@@H](NC(=O)[C@@H](c1ccccc1)N)[C@H]3SC2(C)C

>  <Rat_Female_NTP> (255)
NE

>  <CAS> (255)
7177-48-2

>  <Mouse_Female_NTP> (255)
NE

>  <Synonyms> (255)
(6R)-6-(alpha-D-phenylglycylamino)penicillanic acid trihydrate; alpha-aminobenzylpenicillin trihydrate; acillin; Amcap; Amcill; aminobenzylpenicillin trihydrate; amperil; ampichel; AMPICILLIN TRIHYDRATE, NON-STERILE USP; ampikel; ampinova; amplin; divercillin; Cymbi; D-(-)-6-(2-amino-2-phenylacetamido)-3,3-dimethyl-7-oxo-4-thia-1-azabicyclo[3.2.0]heptane-2-carboxylic acid trihydrate; lifeampil; morepen; PEN A; pensyn; princillin; Principen; ro-ampen; trafarbiot; ukopen; vidopen.

$$$$
256


 16 16  0  0  0  0  0  0  0  0999 V2000
   34.2409  -59.1142   -0.0007 C   0  0  0  0  0  0  0  0  0  0  0  0
   34.2754  -60.4449    0.0003 C   0  0  0  0  0  0  0  0  0  0  0  0
   36.6970  -60.4492    0.0001 C   0  0  0  0  0  0  0  0  0  0  0  0
   36.6597  -58.9858    0.0007 C   0  0  0  0  0  0  0  0  0  0  0  0
   35.5609  -61.1441    0.0002 C   0  0  0  0  0  0  0  0  0  0  0  0
   35.4896  -58.3499    0.0003 C   0  0  0  0  0  0  0  0  0  0  0  0
   35.4508  -56.8496    0.0008 C   0  0  0  0  0  0  0  0  0  0  0  0
   36.7853  -56.3380   -0.0000 O   0  0  0  0  0  0  0  0  0  0  0  0
   33.3623  -58.6367   -0.0022 H   0  0  0  0  0  0  0  0  0  0  0  0
   33.4225  -60.9670    0.0011 H   0  0  0  0  0  0  0  0  0  0  0  0
   37.5755  -60.9270   -0.0005 H   0  0  0  0  0  0  0  0  0  0  0  0
   37.5126  -58.4638    0.0014 H   0  0  0  0  0  0  0  0  0  0  0  0
   35.5863  -62.1437    0.0002 H   0  0  0  0  0  0  0  0  0  0  0  0
   34.9704  -56.5285   -0.8153 H   0  0  0  0  0  0  0  0  0  0  0  0
   34.9717  -56.5290    0.8180 H   0  0  0  0  0  0  0  0  0  0  0  0
   36.7596  -55.3383    0.0003 H   0  0  0  0  0  0  0  0  0  0  0  0
  1  2  2  0  0  0  0
  3  4  1  0  0  0  0
  1  6  1  0  0  0  0
  2  5  1  0  0  0  0
  5  3  2  0  0  0  0
  4  6  2  0  0  0  0
  6  7  1  0  0  0  0
  7  8  1  0  0  0  0
  1  9  1  0  0  0  0
  2 10  1  0  0  0  0
  3 11  1  0  0  0  0
  4 12  1  0  0  0  0
  5 13  1  0  0  0  0
  7 14  1  0  0  0  0
  7 15  1  0  0  0  0
  8 16  1  0  0  0  0
M  END
>  <Substance ID> (256)
256

>  <Mouse_Female_Canc> (256)
1

>  <SAL> (256)
1

>  <Rat_Male_Canc> (256)
1

>  <TD50_Rat> (256)
NP

>  <TD50_Mouse> (256)
NP

>  <Rat_Female_Canc> (256)
1

>  <Canc> (256)
1

>  <MolWeight> (256)
108.14

>  <Mouse_Male_Canc> (256)
1

>  <Mouse_Male_NTP> (256)
NE

>  <ChemName> (256)
Benzyl alcohol

>  <Rat_Male_NTP> (256)
NE

>  <Reference> (256)
NTP343

>  <Formula> (256)
C7H8O

>  <SMILES> (256)
OCC1=CC=CC=C1

>  <Rat_Female_NTP> (256)
NE

>  <CAS> (256)
100-51-6

>  <Mouse_Female_NTP> (256)
NE

>  <Synonyms> (256)
alpha-Hydroxytoluene; alpha-toluenol; Benzenecarbinol; Benzenemethanol; Benzoyl alcohol; (hydroxymethyl)benzene; Hydroxytoluene; Phenylcarbinol; Phenylmethanol; Phenylmethyl alcohol.

$$$$
257


  5  4  0  0  0  0  0  0  0  0999 V2000
   33.9079  -71.2506    0.4542 C   0  0  0  0  0  0  0  0  0  0  0  0
   32.4790  -70.4086   -0.1555 Cl  0  0  0  0  0  0  0  0  0  0  0  0
   33.9211  -72.9085   -0.1569 Cl  0  0  0  0  0  0  0  0  0  0  0  0
   35.5068  -70.3278   -0.1420 Br  0  0  0  0  0  0  0  0  0  0  0  0
   33.8848  -71.2645    1.4538 H   0  0  0  0  0  0  0  0  0  0  0  0
  1  2  1  0  0  0  0
  1  3  1  0  0  0  0
  1  4  1  0  0  0  0
  1  5  1  0  0  0  0
M  END
>  <Substance ID> (257)
257

>  <Mouse_Female_Canc> (257)
3

>  <SAL> (257)
1

>  <Rat_Male_Canc> (257)
3

>  <TD50_Rat> (257)
72.5

>  <TD50_Mouse> (257)
47.7

>  <Rat_Female_Canc> (257)
3

>  <Canc> (257)
3

>  <MolWeight> (257)
163.83

>  <Mouse_Male_Canc> (257)
3

>  <Mouse_Male_NTP> (257)
CE

>  <ChemName> (257)
Bromodichloromethane

>  <Rat_Male_NTP> (257)
CE

>  <Reference> (257)
NTP321

>  <Formula> (257)
CHBrCl2

>  <SMILES> (257)
ClC(Cl)Br

>  <Rat_Female_NTP> (257)
CE

>  <CAS> (257)
75-27-4

>  <Mouse_Female_NTP> (257)
CE

>  <Synonyms> (257)
BDCM; Dichlorobromomethane; dichloromethylbromide; dichloromonobromomethane; monobromodichloromethane.

$$$$
258


 40 42  0  0  0  0  0  0  0  0999 V2000
   36.8434  -83.0572   -0.0055 C   0  0  0  0  0  0  0  0  0  0  0  0
   37.6455  -84.3109   -0.0086 C   0  0  0  0  0  0  0  0  0  0  0  0
   38.9780  -84.3209   -0.0055 C   0  0  0  0  0  0  0  0  0  0  0  0
   39.7208  -83.0799    0.0017 C   0  0  0  0  0  0  0  0  0  0  0  0
   39.0042  -81.8264    0.0005 C   0  0  0  0  0  0  0  0  0  0  0  0
   37.6723  -81.8120   -0.0035 C   0  0  0  0  0  0  0  0  0  0  0  0
   35.4445  -83.0523   -0.0044 C   0  0  0  0  0  0  0  0  0  0  0  0
   34.5820  -81.6242   -0.0023 C   0  0  0  0  0  0  0  0  0  0  0  0
   34.5877  -84.4694   -0.0035 C   0  0  0  0  0  0  0  0  0  0  0  0
   35.1463  -80.4078    0.0277 C   0  0  0  0  0  0  0  0  0  0  0  0
   33.0253  -79.2134    0.0034 C   0  0  0  0  0  0  0  0  0  0  0  0
   32.3693  -80.4864   -0.0339 C   0  0  0  0  0  0  0  0  0  0  0  0
   34.3525  -79.1648    0.0315 C   0  0  0  0  0  0  0  0  0  0  0  0
   33.0892  -81.6001   -0.0362 C   0  0  0  0  0  0  0  0  0  0  0  0
   33.2538  -84.4533    0.0266 C   0  0  0  0  0  0  0  0  0  0  0  0
   32.9824  -86.8356    0.0072 C   0  0  0  0  0  0  0  0  0  0  0  0
   34.4288  -86.9463   -0.0275 C   0  0  0  0  0  0  0  0  0  0  0  0
   32.4250  -85.6385    0.0325 C   0  0  0  0  0  0  0  0  0  0  0  0
   35.1854  -85.8461   -0.0313 C   0  0  0  0  0  0  0  0  0  0  0  0
   32.2685  -78.0421    0.0096 N   0  0  0  0  0  0  0  0  0  0  0  0
   32.1798  -87.9738    0.0137 N   0  0  0  0  0  0  0  0  0  0  0  0
   40.9916  -83.0915    0.0086 N   0  3  0  0  0  0  0  0  0  0  0  0
   37.1621  -85.1863   -0.0134 H   0  0  0  0  0  0  0  0  0  0  0  0
   39.4679  -85.1927   -0.0081 H   0  0  0  0  0  0  0  0  0  0  0  0
   39.5107  -80.9642    0.0025 H   0  0  0  0  0  0  0  0  0  0  0  0
   37.2050  -80.9279   -0.0052 H   0  0  0  0  0  0  0  0  0  0  0  0
   36.1438  -80.3411    0.0482 H   0  0  0  0  0  0  0  0  0  0  0  0
   31.3708  -80.5351   -0.0583 H   0  0  0  0  0  0  0  0  0  0  0  0
   34.8166  -78.2794    0.0554 H   0  0  0  0  0  0  0  0  0  0  0  0
   32.6045  -82.4744   -0.0621 H   0  0  0  0  0  0  0  0  0  0  0  0
   32.7975  -83.5638    0.0465 H   0  0  0  0  0  0  0  0  0  0  0  0
   34.8598  -87.8484   -0.0486 H   0  0  0  0  0  0  0  0  0  0  0  0
   31.4291  -85.5516    0.0558 H   0  0  0  0  0  0  0  0  0  0  0  0
   36.1805  -85.9422   -0.0534 H   0  0  0  0  0  0  0  0  0  0  0  0
   32.7243  -77.1525    0.0356 H   0  0  0  0  0  0  0  0  0  0  0  0
   31.2700  -78.0919   -0.0120 H   0  0  0  0  0  0  0  0  0  0  0  0
   31.1842  -87.8835    0.0377 H   0  0  0  0  0  0  0  0  0  0  0  0
   32.5991  -88.8814   -0.0058 H   0  0  0  0  0  0  0  0  0  0  0  0
   41.4994  -82.2301    0.0136 H   0  0  0  0  0  0  0  0  0  0  0  0
   41.4836  -83.9620    0.0091 H   0  0  0  0  0  0  0  0  0  0  0  0
  1  2  1  0  0  0  0
  1  6  1  0  0  0  0
  2  3  2  0  0  0  0
  3  4  1  0  0  0  0
  4  5  1  0  0  0  0
  5  6  2  0  0  0  0
  7  8  1  0  0  0  0
  7  9  1  0  0  0  0
  7  1  2  0  0  0  0
  8 10  2  0  0  0  0
 11 12  1  0  0  0  0
  8 14  1  0  0  0  0
 10 13  1  0  0  0  0
 13 11  2  0  0  0  0
 12 14  2  0  0  0  0
  9 15  2  0  0  0  0
 16 17  1  0  0  0  0
  9 19  1  0  0  0  0
 15 18  1  0  0  0  0
 18 16  2  0  0  0  0
 17 19  2  0  0  0  0
 11 20  1  0  0  0  0
 16 21  1  0  0  0  0
  4 22  2  0  0  0  0
  2 23  1  0  0  0  0
  3 24  1  0  0  0  0
  5 25  1  0  0  0  0
  6 26  1  0  0  0  0
 10 27  1  0  0  0  0
 12 28  1  0  0  0  0
 13 29  1  0  0  0  0
 14 30  1  0  0  0  0
 15 31  1  0  0  0  0
 17 32  1  0  0  0  0
 18 33  1  0  0  0  0
 19 34  1  0  0  0  0
 20 35  1  0  0  0  0
 20 36  1  0  0  0  0
 21 37  1  0  0  0  0
 21 38  1  0  0  0  0
 22 39  1  0  0  0  0
 22 40  1  0  0  0  0
M  END
>  <Substance ID> (258)
258

>  <Mouse_Female_Canc> (258)
3

>  <SAL> (258)
3

>  <Rat_Male_Canc> (258)
3

>  <TD50_Rat> (258)
39.4

>  <TD50_Mouse> (258)
51.5

>  <Rat_Female_Canc> (258)
3

>  <Canc> (258)
3

>  <MolWeight> (258)
323.83

>  <Mouse_Male_Canc> (258)
3

>  <Mouse_Male_NTP> (258)
CE

>  <ChemName> (258)
C.I. Basic Red 9 Hydrochloride

>  <Rat_Male_NTP> (258)
CE

>  <Reference> (258)
NTP285

>  <Formula> (258)
C19H18ClN3 

>  <SMILES> (258)
[Cl-].[NH2+]=C\1/C=C\C(/C=C/1)=C(/c2ccc(N)cc2)c3ccc(N)cc3

>  <Rat_Female_NTP> (258)
CE

>  <CAS> (258)
569-61-9

>  <Mouse_Female_NTP> (258)
CE

>  <Synonyms> (258)
4,4'-((4-imino-2,5-cyclohexadien-1-ylidene)methylene)dianiline monohydrochloride; 4-((4-aminophenyl)(4-imino-2,5-cyclohexadien-1-ylidene)methyl)benzenamine monohydrochloride; p-fuchsin; Paramagenta; Pararosanilin; pararosaniline chloride; Pararosaniline chloride, high purity biological stain; Pararosaniline Hydrochloride; basic parafuchsine; Basic Fuchsin; Basic Red 9; Basic Red 9, monohydrochloride; calcozine magenta n; C.I. 42500; C.I. Basic Red 9; C.I. Basic Red 9 monohydrochloride; Fuchsine, Acid; Magenta.

$$$$
259


 12 12  0  0  0  0  0  0  0  0999 V2000
    3.9791  -16.6475    0.0002 C   0  0  0  0  0  0  0  0  0  0  0  0
    3.9792  -17.9795   -0.0000 C   0  0  0  0  0  0  0  0  0  0  0  0
    6.4009  -18.0445   -0.0001 C   0  0  0  0  0  0  0  0  0  0  0  0
    6.4006  -16.5809    0.0000 C   0  0  0  0  0  0  0  0  0  0  0  0
    5.2476  -18.7106   -0.0001 C   0  0  0  0  0  0  0  0  0  0  0  0
    5.2470  -15.9154    0.0001 C   0  0  0  0  0  0  0  0  0  0  0  0
    5.2467  -14.1876   -0.0009 Cl  0  0  0  0  0  0  0  0  0  0  0  0
    5.2474  -20.4387   -0.0002 Cl  0  0  0  0  0  0  0  0  0  0  0  0
    3.1131  -16.1475    0.0005 H   0  0  0  0  0  0  0  0  0  0  0  0
    3.1133  -18.4798   -0.0002 H   0  0  0  0  0  0  0  0  0  0  0  0
    7.2670  -18.5443   -0.0003 H   0  0  0  0  0  0  0  0  0  0  0  0
    7.2665  -16.0807    0.0002 H   0  0  0  0  0  0  0  0  0  0  0  0
  1  2  2  0  0  0  0
  3  4  1  0  0  0  0
  1  6  1  0  0  0  0
  2  5  1  0  0  0  0
  5  3  2  0  0  0  0
  4  6  2  0  0  0  0
  6  7  1  0  0  0  0
  5  8  1  0  0  0  0
  1  9  1  0  0  0  0
  2 10  1  0  0  0  0
  3 11  1  0  0  0  0
  4 12  1  0  0  0  0
M  END
>  <Substance ID> (259)
259

>  <Mouse_Female_Canc> (259)
3

>  <SAL> (259)
1

>  <Rat_Male_Canc> (259)
3

>  <TD50_Rat> (259)
644

>  <TD50_Mouse> (259)
398

>  <Rat_Female_Canc> (259)
1

>  <Canc> (259)
3

>  <MolWeight> (259)
147.00

>  <Mouse_Male_Canc> (259)
3

>  <Mouse_Male_NTP> (259)
CE

>  <ChemName> (259)
1,4-Dichlorobenzene

>  <Rat_Male_NTP> (259)
CE

>  <Reference> (259)
NTP319

>  <Formula> (259)
C6H4Cl2

>  <SMILES> (259)
ClC1=CC=C(C=C1)Cl

>  <Rat_Female_NTP> (259)
NE

>  <CAS> (259)
106-46-7

>  <Mouse_Female_NTP> (259)
CE

>  <Synonyms> (259)
PARA; para-Dichlorobenzene; p-dichlorobenzol; p-chlorophenyl chloride; Paracide; Paradow; Paramoth; paranuggets; Para-zene; Dichlorobenzene, 1,4-; Dichlorocide; dichloricide; DCB; Evola; globol; PDB; PDCB; persia-perazol; santochlor.

$$$$
260


  5  4  0  0  0  0  0  0  0  0999 V2000
   36.0493  -28.8506   -0.0007 C   0  0  0  0  0  0  0  0  0  0  0  0
   37.0694  -27.4078   -0.0005 Cl  0  0  0  0  0  0  0  0  0  0  0  0
   37.0689  -30.2938   -0.0004 Cl  0  0  0  0  0  0  0  0  0  0  0  0
   35.4720  -28.8504    0.8158 H   0  0  0  0  0  0  0  0  0  0  0  0
   35.4723  -28.8505   -0.8174 H   0  0  0  0  0  0  0  0  0  0  0  0
  1  2  1  0  0  0  0
  1  3  1  0  0  0  0
  1  4  1  0  0  0  0
  1  5  1  0  0  0  0
M  END
>  <Substance ID> (260)
260

>  <Mouse_Female_Canc> (260)
3

>  <SAL> (260)
3

>  <Rat_Male_Canc> (260)
3

>  <TD50_Rat> (260)
724

>  <TD50_Mouse> (260)
1100

>  <Rat_Female_Canc> (260)
3

>  <Canc> (260)
3

>  <MolWeight> (260)
84.93

>  <Mouse_Male_Canc> (260)
3

>  <Mouse_Male_NTP> (260)
CE

>  <ChemName> (260)
Dichloromethane

>  <Rat_Male_NTP> (260)
SE

>  <Reference> (260)
NTP306

>  <Formula> (260)
CH2Cl2

>  <SMILES> (260)
ClCCl

>  <Rat_Female_NTP> (260)
CE

>  <CAS> (260)
75-09-2

>  <Mouse_Female_NTP> (260)
CE

>  <Synonyms> (260)
Aerothene MM; DCM; Freon 30; Methane dichloride; Methylene dichloride; Methylene chloride; METHYLENE CHLORIDE (DICHLOROMETHANE); narkotil; Plastisolve; R 30; Refrigerant 30; solaesthin; solmethine.

$$$$
261


 13 13  0  0  0  0  0  0  0  0999 V2000
    3.3700  -29.1267   -0.0001 C   0  0  0  0  0  0  0  0  0  0  0  0
    3.3620  -30.4584    0.0000 C   0  0  0  0  0  0  0  0  0  0  0  0
    5.7829  -30.5377    0.0007 C   0  0  0  0  0  0  0  0  0  0  0  0
    5.7908  -29.0745    0.0002 C   0  0  0  0  0  0  0  0  0  0  0  0
    4.6254  -31.1966    0.0002 C   0  0  0  0  0  0  0  0  0  0  0  0
    4.6418  -28.4023    0.0004 C   0  0  0  0  0  0  0  0  0  0  0  0
    4.6498  -27.0105    0.0003 O   0  0  0  0  0  0  0  0  0  0  0  0
    7.2928  -28.2196    0.0003 Cl  0  0  0  0  0  0  0  0  0  0  0  0
    4.6154  -32.9260   -0.0007 Cl  0  0  0  0  0  0  0  0  0  0  0  0
    2.5069  -28.6216   -0.0005 H   0  0  0  0  0  0  0  0  0  0  0  0
    2.4932  -30.9536   -0.0000 H   0  0  0  0  0  0  0  0  0  0  0  0
    6.6460  -31.0426    0.0014 H   0  0  0  0  0  0  0  0  0  0  0  0
    5.5943  -26.6822    0.0007 H   0  0  0  0  0  0  0  0  0  0  0  0
  1  2  2  0  0  0  0
  3  4  1  0  0  0  0
  1  6  1  0  0  0  0
  2  5  1  0  0  0  0
  5  3  2  0  0  0  0
  4  6  2  0  0  0  0
  6  7  1  0  0  0  0
  4  8  1  0  0  0  0
  5  9  1  0  0  0  0
  1 10  1  0  0  0  0
  2 11  1  0  0  0  0
  3 12  1  0  0  0  0
  7 13  1  0  0  0  0
M  END
>  <Substance ID> (261)
261

>  <Mouse_Female_Canc> (261)
1

>  <SAL> (261)
1

>  <Rat_Male_Canc> (261)
1

>  <TD50_Rat> (261)
NP

>  <TD50_Mouse> (261)
NP

>  <Rat_Female_Canc> (261)
1

>  <Canc> (261)
1

>  <MolWeight> (261)
163.00

>  <Mouse_Male_Canc> (261)
1

>  <Mouse_Male_NTP> (261)
NE

>  <ChemName> (261)
2,4-Dichlorophenol

>  <Rat_Male_NTP> (261)
NE

>  <Reference> (261)
NTP353

>  <Formula> (261)
C6H4Cl2O

>  <SMILES> (261)
ClC1=C(C=CC(=C1)Cl)O

>  <Rat_Female_NTP> (261)
NE

>  <CAS> (261)
120-83-2

>  <Mouse_Female_NTP> (261)
NE

>  <Synonyms> (261)
2,4-DCP; 4,6-Dichlorophenol; Dichlorophenol, 2,4-; DCP.

$$$$
262


 12 11  0  0  0  0  0  0  0  0999 V2000
    2.7945  -38.3164    0.0001 C   0  0  0  0  0  0  0  0  0  0  0  0
    4.1093  -38.1096    0.0008 C   0  0  0  0  0  0  0  0  0  0  0  0
    1.8516  -37.1478    0.0003 C   0  0  0  0  0  0  0  0  0  0  0  0
    2.2548  -39.7172   -0.0010 C   0  0  0  0  0  0  0  0  0  0  0  0
    5.1956  -39.4539    0.0008 Cl  0  0  0  0  0  0  0  0  0  0  0  0
    4.4686  -37.1764    0.0013 H   0  0  0  0  0  0  0  0  0  0  0  0
    0.9084  -37.4799   -0.0003 H   0  0  0  0  0  0  0  0  0  0  0  0
    2.0091  -36.5916   -0.8158 H   0  0  0  0  0  0  0  0  0  0  0  0
    2.0084  -36.5925    0.8170 H   0  0  0  0  0  0  0  0  0  0  0  0
    1.2552  -39.6898   -0.0014 H   0  0  0  0  0  0  0  0  0  0  0  0
    2.5742  -40.1986    0.8153 H   0  0  0  0  0  0  0  0  0  0  0  0
    2.5749  -40.1977   -0.8175 H   0  0  0  0  0  0  0  0  0  0  0  0
  1  2  2  0  0  0  0
  1  3  1  0  0  0  0
  1  4  1  0  0  0  0
  2  5  1  0  0  0  0
  2  6  1  0  0  0  0
  3  7  1  0  0  0  0
  3  8  1  0  0  0  0
  3  9  1  0  0  0  0
  4 10  1  0  0  0  0
  4 11  1  0  0  0  0
  4 12  1  0  0  0  0
M  END
>  <Substance ID> (262)
262

>  <Mouse_Female_Canc> (262)
3

>  <SAL> (262)
1

>  <Rat_Male_Canc> (262)
3

>  <TD50_Rat> (262)
31.8

>  <TD50_Mouse> (262)
14.9

>  <Rat_Female_Canc> (262)
3

>  <Canc> (262)
3

>  <MolWeight> (262)
90.55

>  <Mouse_Male_Canc> (262)
3

>  <Mouse_Male_NTP> (262)
CE

>  <ChemName> (262)
Dimethylvinyl Chloride

>  <Rat_Male_NTP> (262)
CE

>  <Reference> (262)
NTP316

>  <Formula> (262)
C4H7Cl

>  <SMILES> (262)
CC(=CCl)C

>  <Rat_Female_NTP> (262)
CE

>  <CAS> (262)
513-37-1

>  <Mouse_Female_NTP> (262)
CE

>  <Synonyms> (262)
1-chloro-2-methyl-1-propene; 1-chloro-2-methylpropene; 1-chloroisobutene; 2,2-dimethylvinyl chloride; alpha-chloroisobutylene; beta,beta-dimethylvinylchloride; isocrotyl chloride; methallyl chloride; methyl allyl chloride.

$$$$
263


 13 13  0  0  0  0  0  0  0  0999 V2000
    4.3002  -43.7761    0.5765 C   0  0  1  0  0  0  0  0  0  0  0  0
    3.0023  -43.5425   -0.1342 C   0  0  0  0  0  0  0  0  0  0  0  0
    3.6953  -44.8294   -0.1961 O   0  0  0  0  0  0  0  0  0  0  0  0
    5.4615  -43.2153   -0.2641 C   0  0  0  0  0  0  0  0  0  0  0  0
    6.7374  -44.0289    0.0176 C   0  0  0  0  0  0  0  0  0  0  0  0
    4.6210  -43.6486    1.5151 H   0  0  0  0  0  0  0  0  0  0  0  0
    2.1523  -43.4518    0.3847 H   0  0  0  0  0  0  0  0  0  0  0  0
    2.9673  -42.9493   -0.9385 H   0  0  0  0  0  0  0  0  0  0  0  0
    5.2320  -43.2807   -1.2352 H   0  0  0  0  0  0  0  0  0  0  0  0
    5.6165  -42.2576   -0.0216 H   0  0  0  0  0  0  0  0  0  0  0  0
    7.4924  -43.6654   -0.5281 H   0  0  0  0  0  0  0  0  0  0  0  0
    6.5828  -44.9868   -0.2246 H   0  0  0  0  0  0  0  0  0  0  0  0
    6.9672  -43.9640    0.9887 H   0  0  0  0  0  0  0  0  0  0  0  0
  2  1  1  0  0  0  0
  3  2  1  0  0  0  0
  1  3  1  0  0  0  0
  1  4  1  0  0  0  0
  4  5  1  0  0  0  0
  1  6  1  0  0  0  0
  2  7  1  0  0  0  0
  2  8  1  0  0  0  0
  4  9  1  0  0  0  0
  4 10  1  0  0  0  0
  5 11  1  0  0  0  0
  5 12  1  0  0  0  0
  5 13  1  0  0  0  0
M  END
>  <Substance ID> (263)
263

>  <Mouse_Female_Canc> (263)
1

>  <SAL> (263)
3

>  <Rat_Male_Canc> (263)
3

>  <TD50_Rat> (263)
220

>  <TD50_Mouse> (263)
NP

>  <Rat_Female_Canc> (263)
2

>  <Canc> (263)
3

>  <MolWeight> (263)
72.11

>  <Mouse_Male_Canc> (263)
1

>  <Mouse_Male_NTP> (263)
NE

>  <ChemName> (263)
1,2-Epoxybutane

>  <Rat_Male_NTP> (263)
CE

>  <Reference> (263)
NTP329

>  <Formula> (263)
C4H8O

>  <SMILES> (263)
CCC1CO1

>  <Rat_Female_NTP> (263)
EE

>  <CAS> (263)
106-88-7

>  <Mouse_Female_NTP> (263)
NE

>  <Synonyms> (263)
1,2-Butylene Oxide; 2-Ethyloxirane; Epoxybutane, 1,2-; ethyloxirane.

$$$$
264


 32 33  0  0  0  0  0  0  0  0999 V2000
   10.8268  -51.7858    0.1059 C   0  0  0  0  0  0  0  0  0  0  0  0
   12.1029  -52.3873    0.0881 O   0  0  0  0  0  0  0  0  0  0  0  0
   12.9533  -51.2516   -0.0036 C   0  0  0  0  0  0  0  0  0  0  0  0
   12.2545  -50.1190   -0.0349 C   0  0  0  0  0  0  0  0  0  0  0  0
   10.8710  -50.4644    0.0356 C   0  0  0  0  0  0  0  0  0  0  0  0
    4.7204  -52.3245   -0.1805 C   0  0  0  0  0  0  0  0  0  0  0  0
    4.6670  -53.6594   -0.2695 C   0  0  0  0  0  0  0  0  0  0  0  0
    7.0949  -53.7867   -0.0963 C   0  0  0  0  0  0  0  0  0  0  0  0
    7.1379  -52.3298    0.0060 C   0  0  0  0  0  0  0  0  0  0  0  0
    5.9423  -54.4342   -0.2349 C   0  0  0  0  0  0  0  0  0  0  0  0
    6.0127  -51.6271   -0.0420 C   0  0  0  0  0  0  0  0  0  0  0  0
    6.0078  -50.1451    0.0337 C   0  0  0  0  0  0  0  0  0  0  0  0
    3.0556  -54.4523   -0.4441 S   0  0  0  0  0  0  0  0  0  0  0  0
    6.0060  -56.1668   -0.3891 Cl  0  0  0  0  0  0  0  0  0  0  0  0
    8.4007  -51.7244    0.1383 N   0  0  0  0  0  0  0  0  0  0  0  0
    4.9416  -49.5343   -0.0325 O   0  0  0  0  0  0  0  0  0  0  0  0
    7.2048  -49.4395    0.1660 O   0  0  0  0  0  0  0  0  0  0  0  0
    1.7281  -54.6878    0.6549 N   0  0  0  0  0  0  0  0  0  0  0  0
    2.6210  -53.0335   -0.1326 O   0  0  0  0  0  0  0  0  0  0  0  0
    3.6449  -55.5276    0.4405 O   0  0  0  0  0  0  0  0  0  0  0  0
    9.5608  -52.5748    0.1907 C   0  0  0  0  0  0  0  0  0  0  0  0
   13.9515  -51.2978   -0.0400 H   0  0  0  0  0  0  0  0  0  0  0  0
   12.6303  -49.1944   -0.0965 H   0  0  0  0  0  0  0  0  0  0  0  0
   10.0933  -49.8358    0.0325 H   0  0  0  0  0  0  0  0  0  0  0  0
    3.8734  -51.7936   -0.2083 H   0  0  0  0  0  0  0  0  0  0  0  0
    7.9485  -54.3064   -0.0614 H   0  0  0  0  0  0  0  0  0  0  0  0
    8.4900  -50.7300    0.1944 H   0  0  0  0  0  0  0  0  0  0  0  0
    7.0121  -48.4589    0.2009 H   0  0  0  0  0  0  0  0  0  0  0  0
    0.9924  -55.1796    0.1892 H   0  0  0  0  0  0  0  0  0  0  0  0
    1.3900  -53.7993    0.9653 H   0  0  0  0  0  0  0  0  0  0  0  0
    9.5521  -53.0822    1.0523 H   0  0  0  0  0  0  0  0  0  0  0  0
    9.5270  -53.2168   -0.5752 H   0  0  0  0  0  0  0  0  0  0  0  0
  1  2  1  0  0  0  0
  2  3  1  0  0  0  0
  3  4  2  0  0  0  0
  4  5  1  0  0  0  0
  5  1  2  0  0  0  0
  6  7  2  0  0  0  0
  8  9  1  0  0  0  0
  6 11  1  0  0  0  0
  7 10  1  0  0  0  0
 10  8  2  0  0  0  0
  9 11  2  0  0  0  0
 11 12  1  0  0  0  0
  7 13  1  0  0  0  0
 10 14  1  0  0  0  0
  9 15  1  0  0  0  0
 12 16  2  0  0  0  0
 12 17  1  0  0  0  0
 13 18  1  0  0  0  0
 13 19  2  0  0  0  0
 13 20  2  0  0  0  0
 15 21  1  0  0  0  0
 21  1  1  0  0  0  0
  3 22  1  0  0  0  0
  4 23  1  0  0  0  0
  5 24  1  0  0  0  0
  6 25  1  0  0  0  0
  8 26  1  0  0  0  0
 15 27  1  0  0  0  0
 17 28  1  0  0  0  0
 18 29  1  0  0  0  0
 18 30  1  0  0  0  0
 21 31  1  0  0  0  0
 21 32  1  0  0  0  0
M  END
>  <Substance ID> (264)
264

>  <Mouse_Female_Canc> (264)
3

>  <SAL> (264)
1

>  <Rat_Male_Canc> (264)
2

>  <TD50_Rat> (264)
NP

>  <TD50_Mouse> (264)
732

>  <Rat_Female_Canc> (264)
1

>  <Canc> (264)
3

>  <MolWeight> (264)
330.74

>  <Mouse_Male_Canc> (264)
1

>  <Mouse_Male_NTP> (264)
NE

>  <ChemName> (264)
Furosemide

>  <Rat_Male_NTP> (264)
EE

>  <Reference> (264)
NTP356

>  <Formula> (264)
C12H11ClN2O5S

>  <SMILES> (264)
O=S(=O)(N)c1c(Cl)cc(c(C(=O)O)c1)NCc2occc2

>  <Rat_Female_NTP> (264)
NE

>  <CAS> (264)
54-31-9

>  <Mouse_Female_NTP> (264)
SE

>  <Synonyms> (264)
4-chloro-N-(2-furylmethyl)-5-sulfamoylanthranilic acid; 4-Chloro-N-furfuryl-5-sulfamoylanthranilic acid; 5-(aminosulfonyl)-4-chloro-2-((2-furanylmethyl)amino)benzoic acid; aisemide; aluzine; beronald; diural; desdemin; dryptal; errolon; eutensin; Frusemide; frusemin; frusid; fulsix; fulvamide; furanthril; furanthryl; furantril; furesis; furosedon; furosemide ''mita''; FUROSEMIDE USP; fursemide; Fusid; hydro-rapid; katlex; Lasex; lasilix; Lasix; LB 502; lowpstron; macasirool; Myrosemide; prefemin; profemin; radonna; rosemide; Salix; seguril; transit; trofurit; urosemide.

$$$$
265


 32 32  0  0  0  0  0  0  0  0999 V2000
    3.4667  -62.7104   -0.0063 C   0  0  0  0  0  0  0  0  0  0  0  0
    3.1720  -64.0070    0.0013 C   0  0  0  0  0  0  0  0  0  0  0  0
    5.5212  -64.6214    0.0085 C   0  0  0  0  0  0  0  0  0  0  0  0
    5.8280  -63.1895    0.0005 C   0  0  0  0  0  0  0  0  0  0  0  0
    4.2349  -65.0260    0.0099 C   0  0  0  0  0  0  0  0  0  0  0  0
    4.8538  -62.2836   -0.0078 C   0  0  0  0  0  0  0  0  0  0  0  0
    5.1682  -60.9305   -0.0165 O   0  0  0  0  0  0  0  0  0  0  0  0
    6.6074  -65.4945    0.0182 O   0  0  0  0  0  0  0  0  0  0  0  0
    3.7512  -66.4913    0.0167 C   0  0  0  0  0  0  0  0  0  0  0  0
    4.8160  -67.6035   -0.0079 C   0  0  0  0  0  0  0  0  0  0  0  0
    4.0857  -68.9417    0.0031 C   0  0  0  0  0  0  0  0  0  0  0  0
    5.0775  -70.1064   -0.0141 C   0  0  0  0  0  0  0  0  0  0  0  0
    4.2525  -71.4031    0.0018 C   0  0  0  0  0  0  0  0  0  0  0  0
    5.1806  -72.6245   -0.0070 C   0  0  0  0  0  0  0  0  0  0  0  0
    2.7336  -62.0303   -0.0109 H   0  0  0  0  0  0  0  0  0  0  0  0
    2.2141  -64.2944    0.0011 H   0  0  0  0  0  0  0  0  0  0  0  0
    6.7817  -62.8889    0.0012 H   0  0  0  0  0  0  0  0  0  0  0  0
    6.1619  -60.8187   -0.0163 H   0  0  0  0  0  0  0  0  0  0  0  0
    6.2770  -66.4383    0.0230 H   0  0  0  0  0  0  0  0  0  0  0  0
    3.2054  -66.6204    0.8446 H   0  0  0  0  0  0  0  0  0  0  0  0
    3.1715  -66.6168   -0.7883 H   0  0  0  0  0  0  0  0  0  0  0  0
    5.3715  -67.5251   -0.8357 H   0  0  0  0  0  0  0  0  0  0  0  0
    5.4045  -67.5297    0.7973 H   0  0  0  0  0  0  0  0  0  0  0  0
    3.5251  -69.0017    0.8290 H   0  0  0  0  0  0  0  0  0  0  0  0
    3.4983  -69.0004   -0.8041 H   0  0  0  0  0  0  0  0  0  0  0  0
    5.6384  -70.0670   -0.8410 H   0  0  0  0  0  0  0  0  0  0  0  0
    5.6680  -70.0658    0.7920 H   0  0  0  0  0  0  0  0  0  0  0  0
    3.6873  -71.4242    0.8265 H   0  0  0  0  0  0  0  0  0  0  0  0
    3.6645  -71.4298   -0.8066 H   0  0  0  0  0  0  0  0  0  0  0  0
    4.6322  -73.4606    0.0035 H   0  0  0  0  0  0  0  0  0  0  0  0
    5.7692  -72.6024    0.8013 H   0  0  0  0  0  0  0  0  0  0  0  0
    5.7464  -72.6079   -0.8314 H   0  0  0  0  0  0  0  0  0  0  0  0
  1  2  2  0  0  0  0
  3  4  1  0  0  0  0
  1  6  1  0  0  0  0
  2  5  1  0  0  0  0
  5  3  2  0  0  0  0
  4  6  2  0  0  0  0
  6  7  1  0  0  0  0
  3  8  1  0  0  0  0
  5  9  1  0  0  0  0
  9 10  1  0  0  0  0
 10 11  1  0  0  0  0
 11 12  1  0  0  0  0
 12 13  1  0  0  0  0
 13 14  1  0  0  0  0
  1 15  1  0  0  0  0
  2 16  1  0  0  0  0
  4 17  1  0  0  0  0
  7 18  1  0  0  0  0
  8 19  1  0  0  0  0
  9 20  1  0  0  0  0
  9 21  1  0  0  0  0
 10 22  1  0  0  0  0
 10 23  1  0  0  0  0
 11 24  1  0  0  0  0
 11 25  1  0  0  0  0
 12 26  1  0  0  0  0
 12 27  1  0  0  0  0
 13 28  1  0  0  0  0
 13 29  1  0  0  0  0
 14 30  1  0  0  0  0
 14 31  1  0  0  0  0
 14 32  1  0  0  0  0
M  END
>  <Substance ID> (265)
265

>  <Mouse_Female_Canc> (265)
1

>  <SAL> (265)
1

>  <Rat_Male_Canc> (265)
1

>  <TD50_Rat> (265)
NP

>  <TD50_Mouse> (265)
NP

>  <Rat_Female_Canc> (265)
1

>  <Canc> (265)
2

>  <MolWeight> (265)
194.27

>  <Mouse_Male_Canc> (265)
2

>  <Mouse_Male_NTP> (265)
EE

>  <ChemName> (265)
4-Hexylresorcinol

>  <Rat_Male_NTP> (265)
NE

>  <Reference> (265)
NTP330

>  <Formula> (265)
C12H18O2

>  <SMILES> (265)
OC1=C(C=CC(=C1)O)CCCCCC

>  <Rat_Female_NTP> (265)
NE

>  <CAS> (265)
136-77-6

>  <Mouse_Female_NTP> (265)
NE

>  <Synonyms> (265)
4-Hexyl-1,3-benzenediol; 4-Hexyl-1,3-dihydroxybenzene; 4-hexylresorcine; 4-n-hexylresorcinol; Ascaryl; Benzenediol, 4-hexyl-; Crystoids; crystoids anthelmintic; Gelovermin; Caprokol; Hexylresorcinol; S.T. 37; Sucrets; Worm-agen.

$$$$
266


 25 26  0  0  0  0  0  0  0  0999 V2000
    5.4013  -78.8135    0.0819 C   0  0  0  0  0  0  0  0  0  0  0  0
    5.4912  -80.1442    0.0199 C   0  0  0  0  0  0  0  0  0  0  0  0
    6.8077  -80.7856   -0.0626 C   0  0  0  0  0  0  0  0  0  0  0  0
    6.6389  -77.9981    0.0521 C   0  0  0  0  0  0  0  0  0  0  0  0
    7.8309  -78.5961   -0.0270 C   0  0  0  0  0  0  0  0  0  0  0  0
    7.9226  -80.0571   -0.0809 C   0  0  0  0  0  0  0  0  0  0  0  0
    9.1866  -80.7198   -0.1394 N   0  0  0  0  0  0  0  0  0  0  0  0
   10.4809  -80.0179   -0.1023 C   0  0  0  0  0  0  0  0  0  0  0  0
   10.4672  -78.7239   -0.8235 N   0  0  0  0  0  0  0  0  0  0  0  0
    9.3239  -77.6700   -0.0858 S   0  0  0  0  0  0  0  0  0  0  0  0
    3.8046  -78.0099    0.1995 S   0  0  0  0  0  0  0  0  0  0  0  0
    4.0684  -81.1311    0.0412 Cl  0  0  0  0  0  0  0  0  0  0  0  0
    9.7578  -77.3172    1.3256 O   0  0  0  0  0  0  0  0  0  0  0  0
    9.1393  -76.3943   -0.8876 O   0  0  0  0  0  0  0  0  0  0  0  0
    2.9372  -78.2420   -1.2901 N   0  0  0  0  0  0  0  0  0  0  0  0
    4.0262  -76.5304    0.4483 O   0  0  0  0  0  0  0  0  0  0  0  0
    3.0034  -78.6202    1.3338 O   0  0  0  0  0  0  0  0  0  0  0  0
    6.8691  -81.7828   -0.1056 H   0  0  0  0  0  0  0  0  0  0  0  0
    6.5815  -77.0005    0.0912 H   0  0  0  0  0  0  0  0  0  0  0  0
    9.1931  -81.7174   -0.2096 H   0  0  0  0  0  0  0  0  0  0  0  0
   10.7212  -79.8461    0.8531 H   0  0  0  0  0  0  0  0  0  0  0  0
   11.1730  -80.6066   -0.5199 H   0  0  0  0  0  0  0  0  0  0  0  0
   11.3767  -78.3101   -0.7833 H   0  0  0  0  0  0  0  0  0  0  0  0
    2.0447  -77.7951   -1.2298 H   0  0  0  0  0  0  0  0  0  0  0  0
    2.8093  -79.2204   -1.4529 H   0  0  0  0  0  0  0  0  0  0  0  0
  1  2  2  0  0  0  0
  1  4  1  0  0  0  0
  2  3  1  0  0  0  0
  3  6  2  0  0  0  0
  5  4  2  0  0  0  0
  5  6  1  0  0  0  0
  5 10  1  0  0  0  0
  6  7  1  0  0  0  0
  7  8  1  0  0  0  0
  8  9  1  0  0  0  0
  9 10  1  0  0  0  0
  1 11  1  0  0  0  0
  2 12  1  0  0  0  0
 10 13  2  0  0  0  0
 10 14  2  0  0  0  0
 11 15  1  0  0  0  0
 11 16  2  0  0  0  0
 11 17  2  0  0  0  0
  3 18  1  0  0  0  0
  4 19  1  0  0  0  0
  7 20  1  0  0  0  0
  8 21  1  0  0  0  0
  8 22  1  0  0  0  0
  9 23  1  0  0  0  0
 15 24  1  0  0  0  0
 15 25  1  0  0  0  0
M  END
>  <Substance ID> (266)
266

>  <Mouse_Female_Canc> (266)
1

>  <SAL> (266)
1

>  <Rat_Male_Canc> (266)
1

>  <TD50_Rat> (266)
NP

>  <TD50_Mouse> (266)
NP

>  <Rat_Female_Canc> (266)
1

>  <Canc> (266)
2

>  <MolWeight> (266)
297.73

>  <Mouse_Male_Canc> (266)
2

>  <Mouse_Male_NTP> (266)
EE

>  <ChemName> (266)
Hydrochlorothiazide

>  <Rat_Male_NTP> (266)
NE

>  <Reference> (266)
NTP357

>  <Formula> (266)
C7H8ClN3O4S2

>  <SMILES> (266)
O=S1(=O)C2=C(C=C(C(=C2)S(=O)(=O)N)Cl)NCN1

>  <Rat_Female_NTP> (266)
NE

>  <CAS> (266)
58-93-5

>  <Mouse_Female_NTP> (266)
NE

>  <Synonyms> (266)
3,4-dihydro-6-chloro-7-sulfamoyl-1,2,4-benzothiadiazine-1,1-dioxide; 3,4-dihydrochlorothiazide; oretic; panurin; panurin dichloride; spironolactone/hydrochlorothiazide; thiaretic; urodiazin; vetidrex; 6-chloro-3,4-dihydro-2H-1,2,4-benzothiadiazine-7-sulfonamide-1,1-dioxide; 6-chloro-3,4-dihydro-7-sulfamoyl-2H-1,2,4-benzothiadiazine-1,1-dioxide; Aldactazide; aquarills; aquarius; dichlorosal; diclotride; chlorosulthiadil; cidrex; esidrex; Esidrix; HCTZ; HCZ; hydril; hydrodiuril; Hydro-chlor; Hydro-D; hydrosaluric; hypothiazide; ivaugan; nefrix; neo-codema; neoflumen.

$$$$
267


 26 26  0  0  0  0  0  0  0  0999 V2000
    3.3642  -87.1288   -0.1084 C   0  0  0  0  0  0  0  0  0  0  0  0
    3.4306  -88.6055    0.3355 C   0  0  0  0  0  0  0  0  0  0  0  0
    4.6513  -89.2378   -0.3069 C   0  0  1  0  0  0  0  0  0  0  0  0
    5.9335  -88.5898    0.2339 C   0  0  0  0  0  0  0  0  0  0  0  0
    5.8616  -87.0873    0.1332 C   0  0  0  0  0  0  0  0  0  0  0  0
    4.7096  -86.4232   -0.0227 C   0  0  0  0  0  0  0  0  0  0  0  0
    4.7487  -84.9274   -0.1351 C   0  0  0  0  0  0  0  0  0  0  0  0
    4.6901  -90.7328   -0.1070 C   0  0  0  0  0  0  0  0  0  0  0  0
    3.4113  -91.5078    0.0465 C   0  0  0  0  0  0  0  0  0  0  0  0
    5.8578  -91.3724   -0.0714 C   0  0  0  0  0  0  0  0  0  0  0  0
    3.0460  -87.0946   -1.0558 H   0  0  0  0  0  0  0  0  0  0  0  0
    2.7139  -86.6479    0.4797 H   0  0  0  0  0  0  0  0  0  0  0  0
    3.5072  -88.6566    1.3313 H   0  0  0  0  0  0  0  0  0  0  0  0
    2.6050  -89.0856    0.0392 H   0  0  0  0  0  0  0  0  0  0  0  0
    4.5900  -89.0730   -1.2913 H   0  0  0  0  0  0  0  0  0  0  0  0
    6.0514  -88.8482    1.1927 H   0  0  0  0  0  0  0  0  0  0  0  0
    6.7147  -88.9164   -0.2983 H   0  0  0  0  0  0  0  0  0  0  0  0
    6.7119  -86.5636    0.1851 H   0  0  0  0  0  0  0  0  0  0  0  0
    5.6946  -84.6116   -0.0608 H   0  0  0  0  0  0  0  0  0  0  0  0
    4.2041  -84.5231    0.5998 H   0  0  0  0  0  0  0  0  0  0  0  0
    4.3734  -84.6492   -1.0193 H   0  0  0  0  0  0  0  0  0  0  0  0
    3.6214  -92.4777    0.1691 H   0  0  0  0  0  0  0  0  0  0  0  0
    2.8492  -91.3899   -0.7722 H   0  0  0  0  0  0  0  0  0  0  0  0
    2.9113  -91.1721    0.8448 H   0  0  0  0  0  0  0  0  0  0  0  0
    5.8813  -92.3632    0.0612 H   0  0  0  0  0  0  0  0  0  0  0  0
    6.7110  -90.8617   -0.1772 H   0  0  0  0  0  0  0  0  0  0  0  0
  1  2  1  0  0  0  0
  1  6  1  0  0  0  0
  2  3  1  0  0  0  0
  3  4  1  0  0  0  0
  4  5  1  0  0  0  0
  5  6  2  0  0  0  0
  6  7  1  0  0  0  0
  3  8  1  0  0  0  0
  8  9  1  0  0  0  0
  8 10  2  0  0  0  0
  1 11  1  0  0  0  0
  1 12  1  0  0  0  0
  2 13  1  0  0  0  0
  2 14  1  0  0  0  0
  3 15  1  0  0  0  0
  4 16  1  0  0  0  0
  4 17  1  0  0  0  0
  5 18  1  0  0  0  0
  7 19  1  0  0  0  0
  7 20  1  0  0  0  0
  7 21  1  0  0  0  0
  9 22  1  0  0  0  0
  9 23  1  0  0  0  0
  9 24  1  0  0  0  0
 10 25  1  0  0  0  0
 10 26  1  0  0  0  0
M  END
>  <Substance ID> (267)
267

>  <Mouse_Female_Canc> (267)
1

>  <SAL> (267)
1

>  <Rat_Male_Canc> (267)
3

>  <TD50_Rat> (267)
204

>  <TD50_Mouse> (267)
NP

>  <Rat_Female_Canc> (267)
1

>  <Canc> (267)
3

>  <MolWeight> (267)
136.24

>  <Mouse_Male_Canc> (267)
1

>  <Mouse_Male_NTP> (267)
NE

>  <ChemName> (267)
d-Limonene

>  <Rat_Male_NTP> (267)
CE

>  <Reference> (267)
NTP347

>  <Formula> (267)
C10H16

>  <SMILES> (267)
CC(=C)[C@@H]1CCC(=CC1)C

>  <Rat_Female_NTP> (267)
NE

>  <CAS> (267)
5989-27-5

>  <Mouse_Female_NTP> (267)
NE

>  <Synonyms> (267)
(+)-1,8-para-Menthadiene; (+)-4-isopropenyl-1-methylcyclohexene; (+)-(4R)-limonene; (+)-carvene; (+)-limonene; (+)-Limonene, stabilized with 0.03% tocopherol; (+)-r-limonene; p-mentha-1,8-diene; citrene; D-1,8-p-Menthadiene; D-p-mentha-1,8-diene; D-limonene; Hemo-sol; (R)-(+)-Limonene; (R)-1-methyl-4-(1-methylethenyl)cyclohexene.

$$$$
268


  8  7  0  0  0  0  0  0  0  0999 V2000
   33.7930   -4.0043    0.0001 C   0  0  0  0  0  0  0  0  0  0  0  0
   35.0120   -3.7784    0.0003 O   0  0  0  0  0  0  0  0  0  0  0  0
   33.1321   -5.3717   -0.0001 C   0  0  0  0  0  0  0  0  0  0  0  0
   33.6905   -6.6013   -0.0001 C   0  0  0  0  0  0  0  0  0  0  0  0
   35.0626   -6.9084    0.0001 O   0  5  0  0  0  0  0  0  0  0  0  0
   33.1864   -3.2093    0.0000 H   0  0  0  0  0  0  0  0  0  0  0  0
   32.1322   -5.3597   -0.0003 H   0  0  0  0  0  0  0  0  0  0  0  0
   33.0598   -7.3774   -0.0003 H   0  0  0  0  0  0  0  0  0  0  0  0
  1  2  2  0  0  0  0
  1  3  1  0  0  0  0
  3  4  2  0  0  0  0
  4  5  1  0  0  0  0
  1  6  1  0  0  0  0
  3  7  1  0  0  0  0
  4  8  1  0  0  0  0
M  END
>  <Substance ID> (268)
268

>  <Mouse_Female_Canc> (268)
1

>  <SAL> (268)
1

>  <Rat_Male_Canc> (268)
3

>  <TD50_Rat> (268)
122

>  <TD50_Mouse> (268)
14.1

>  <Rat_Female_Canc> (268)
3

>  <Canc> (268)
3

>  <MolWeight> (268)
94.05

>  <Mouse_Male_Canc> (268)
1

>  <Mouse_Male_NTP> (268)
NE

>  <ChemName> (268)
Malonaldehyde, Sodium Salt

>  <Rat_Male_NTP> (268)
CE

>  <Reference> (268)
NTP331

>  <Formula> (268)
C3H3O2.Na

>  <SMILES> (268)
[Na+].[O-]\C=C\C=O

>  <Rat_Female_NTP> (268)
CE

>  <CAS> (268)
24382-04-5

>  <Mouse_Female_NTP> (268)
NE

>  <Synonyms> (268)
3-Hydroxy-2-propenal, sodium salt; sodium malonaldehyde, ion (1-); sodium malondialdehyde; propanedial, ion (1-), sodium.

$$$$
269


 15 16  0  0  0  0  0  0  0  0999 V2000
   29.8783  -11.1199   -0.0008 C   0  0  0  0  0  0  0  0  0  0  0  0
   29.5109  -12.4083   -0.0013 C   0  0  0  0  0  0  0  0  0  0  0  0
   30.5350  -13.4689   -0.0004 C   0  0  0  0  0  0  0  0  0  0  0  0
   31.3100  -10.7525    0.0005 C   0  0  0  0  0  0  0  0  0  0  0  0
   32.2063  -11.7327    0.0012 C   0  0  0  0  0  0  0  0  0  0  0  0
   31.8076  -13.0928    0.0008 C   0  0  0  0  0  0  0  0  0  0  0  0
   33.1950  -14.1089    0.0014 S   0  0  0  0  0  0  0  0  0  0  0  0
   34.2549  -12.6807    0.0008 C   0  0  0  0  0  0  0  0  0  0  0  0
   33.6228  -11.5596    0.0012 N   0  0  0  0  0  0  0  0  0  0  0  0
   36.0231  -12.7913   -0.0010 S   0  0  0  0  0  0  0  0  0  0  0  0
   29.1807  -10.4035   -0.0013 H   0  0  0  0  0  0  0  0  0  0  0  0
   28.5407  -12.6508   -0.0023 H   0  0  0  0  0  0  0  0  0  0  0  0
   30.2800  -14.4359   -0.0007 H   0  0  0  0  0  0  0  0  0  0  0  0
   31.5954   -9.7940    0.0009 H   0  0  0  0  0  0  0  0  0  0  0  0
   36.4151  -11.8714   -0.0011 H   0  0  0  0  0  0  0  0  0  0  0  0
  1  2  2  0  0  0  0
  1  4  1  0  0  0  0
  2  3  1  0  0  0  0
  3  6  2  0  0  0  0
  5  4  2  0  0  0  0
  5  6  1  0  0  0  0
  6  7  1  0  0  0  0
  7  8  1  0  0  0  0
  8  9  2  0  0  0  0
  5  9  1  0  0  0  0
  8 10  1  0  0  0  0
  1 11  1  0  0  0  0
  2 12  1  0  0  0  0
  3 13  1  0  0  0  0
  4 14  1  0  0  0  0
 10 15  1  0  0  0  0
M  END
>  <Substance ID> (269)
269

>  <Mouse_Female_Canc> (269)
2

>  <SAL> (269)
1

>  <Rat_Male_Canc> (269)
3

>  <TD50_Rat> (269)
344

>  <TD50_Mouse> (269)
NP

>  <Rat_Female_Canc> (269)
3

>  <Canc> (269)
3

>  <MolWeight> (269)
167.24

>  <Mouse_Male_Canc> (269)
1

>  <Mouse_Male_NTP> (269)
NE

>  <ChemName> (269)
2-Mercaptobenzothiazole

>  <Rat_Male_NTP> (269)
SE

>  <Reference> (269)
NTP332

>  <Formula> (269)
C7H5NS2

>  <SMILES> (269)
SC1=NC2=C(C=CC=C2)S1

>  <Rat_Female_NTP> (269)
SE

>  <CAS> (269)
149-30-4

>  <Mouse_Female_NTP> (269)
EE

>  <Synonyms> (269)
2(3H)-Benzothiazolethione; 2-Benzothiazolethiol; benzothiazole-2-thiol; Benzothiazolethiol; captax; Dermacid; MBT; Mercaptobenzothiazole; Mertax; Nocceler M; pennac mbt; Rokon; Rotax; sulfadene; Thiotax.

$$$$
270


 10  9  0  0  0  0  0  0  0  0999 V2000
   30.6064  -19.8677   -0.0005 N   0  0  0  0  0  0  0  0  0  0  0  0
   31.9367  -19.3386   -0.0001 C   0  0  0  0  0  0  0  0  0  0  0  0
   33.0286  -20.2018   -0.0003 O   0  0  0  0  0  0  0  0  0  0  0  0
   32.1147  -18.1151    0.0006 O   0  0  0  0  0  0  0  0  0  0  0  0
   34.2402  -19.4417   -0.0001 C   0  0  0  0  0  0  0  0  0  0  0  0
   29.8218  -19.2479   -0.0003 H   0  0  0  0  0  0  0  0  0  0  0  0
   30.4619  -20.8572   -0.0010 H   0  0  0  0  0  0  0  0  0  0  0  0
   35.0239  -20.0628   -0.0003 H   0  0  0  0  0  0  0  0  0  0  0  0
   34.2725  -18.8653    0.8164 H   0  0  0  0  0  0  0  0  0  0  0  0
   34.2724  -18.8649   -0.8164 H   0  0  0  0  0  0  0  0  0  0  0  0
  1  2  1  0  0  0  0
  2  3  1  0  0  0  0
  2  4  2  0  0  0  0
  3  5  1  0  0  0  0
  1  6  1  0  0  0  0
  1  7  1  0  0  0  0
  5  8  1  0  0  0  0
  5  9  1  0  0  0  0
  5 10  1  0  0  0  0
M  END
>  <Substance ID> (270)
270

>  <Mouse_Female_Canc> (270)
1

>  <SAL> (270)
1

>  <Rat_Male_Canc> (270)
3

>  <TD50_Rat> (270)
839

>  <TD50_Mouse> (270)
NP

>  <Rat_Female_Canc> (270)
3

>  <Canc> (270)
3

>  <MolWeight> (270)
75.07

>  <Mouse_Male_Canc> (270)
1

>  <Mouse_Male_NTP> (270)
NE

>  <ChemName> (270)
Methyl Carbamate

>  <Rat_Male_NTP> (270)
CE

>  <Reference> (270)
NTP328

>  <Formula> (270)
C2H5NO2

>  <SMILES> (270)
NC(=O)OC

>  <Rat_Female_NTP> (270)
CE

>  <CAS> (270)
598-55-0

>  <Mouse_Female_NTP> (270)
NE

>  <Synonyms> (270)
O-Methyl carbamate; Carbamic acid methyl ester; Methylurethane; urethylane.

$$$$
271


 56 56  0  0  0  0  0  0  0  0999 V2000
    4.0719   -1.3372   -0.4234 C   0  0  0  0  0  0  0  0  0  1  0  0
    2.8998   -2.3063   -0.2660 C   0  0  1  0  0  0  0  0  0  2  0  0
    5.0663   -1.6122    0.4413 O   0  0  0  0  0  0  0  0  0  3  0  0
    4.1300   -0.4024   -1.1866 O   0  0  0  0  0  0  0  0  0  4  0  0
    1.5990   -1.4789   -0.3317 C   0  0  0  0  0  0  0  0  0  5  0  0
    0.2395   -2.1352   -0.1934 C   0  0  0  0  0  0  0  0  0  6  0  0
    0.0202   -3.4657    0.1755 C   0  0  0  0  0  0  0  0  0  7  0  0
   -1.2755   -3.9675    0.3007 C   0  0  0  0  0  0  0  0  0  8  0  0
   -2.3963   -3.1666    0.0704 C   0  0  0  0  0  0  0  0  0  9  0  0
   -2.2018   -1.8379   -0.3244 C   0  0  0  0  0  0  0  0  0 10  0  0
   -0.8961   -1.3514   -0.4321 C   0  0  0  0  0  0  0  0  0 11  0  0
   -3.2666   -1.0158   -0.5251 O   0  0  0  0  0  0  0  0  0 12  0  0
   -3.6476   -3.6732    0.2165 O   0  0  0  0  0  0  0  0  0 13  0  0
    3.0235   -3.3110   -1.4244 C   0  0  0  0  0  0  0  0  0 14  0  0
    2.9993   -2.9950    1.0344 N   0  0  0  0  0  0  0  0  0 15  0  0
    5.7352   -0.9176    0.3268 H   0  0  0  0  0  0  0  0  0 16  0  0
    1.5867   -0.9264   -1.3023 H   0  0  0  0  0  0  0  0  0 17  0  0
    1.6438   -0.7150    0.4819 H   0  0  0  0  0  0  0  0  0 18  0  0
    0.8508   -4.1517    0.3890 H   0  0  0  0  0  0  0  0  0 19  0  0
   -1.4210   -5.0185    0.6009 H   0  0  0  0  0  0  0  0  0 20  0  0
   -0.7552   -0.2989   -0.7249 H   0  0  0  0  0  0  0  0  0 21  0  0
   -2.9510   -0.0967   -0.4760 H   0  0  0  0  0  0  0  0  0 22  0  0
   -3.5695   -4.6108    0.4593 H   0  0  0  0  0  0  0  0  0 23  0  0
    2.2043   -4.0614   -1.4266 H   0  0  0  0  0  0  0  0  0 24  0  0
    3.9812   -3.8765   -1.3582 H   0  0  0  0  0  0  0  0  0 25  0  0
    2.9987   -2.7984   -2.4129 H   0  0  0  0  0  0  0  0  0 26  0  0
    2.8922   -2.3406    1.8089 H   0  0  0  0  0  0  0  0  0 27  0  0
    3.9231   -3.4086    1.1579 H   0  0  0  0  0  0  0  0  0 28  0  0
    3.6384    3.8152   -1.3165 C   0  0  0  0  0  0  0  0  0 29  0  0
    2.4373    2.9472   -0.9641 C   0  0  1  0  0  0  0  0  0 30  0  0
    4.6904    3.0630   -1.6907 O   0  0  0  0  0  0  0  0  0 31  0  0
    3.7121    5.0185   -1.2458 O   0  0  0  0  0  0  0  0  0 32  0  0
    1.4305    3.7562   -0.1196 C   0  0  0  0  0  0  0  0  0 33  0  0
    0.2766    2.9038    0.3606 C   0  0  0  0  0  0  0  0  0 34  0  0
    0.3631    2.1758    1.5495 C   0  0  0  0  0  0  0  0  0 35  0  0
   -0.6955    1.3696    1.9651 C   0  0  0  0  0  0  0  0  0 36  0  0
   -1.8770    1.2782    1.2239 C   0  0  0  0  0  0  0  0  0 37  0  0
   -2.0043    2.0585    0.0666 C   0  0  0  0  0  0  0  0  0 38  0  0
   -0.9260    2.8453   -0.3496 C   0  0  0  0  0  0  0  0  0 39  0  0
   -3.1478    2.0231   -0.6682 O   0  0  0  0  0  0  0  0  0 40  0  0
   -2.9074    0.5021    1.6568 O   0  0  0  0  0  0  0  0  0 41  0  0
    1.8020    2.4456   -2.2725 C   0  0  0  0  0  0  0  0  0 42  0  0
    2.8790    1.7845   -0.1748 N   0  0  0  0  0  0  0  0  0 43  0  0
    5.4339    3.6752   -1.8136 H   0  0  0  0  0  0  0  0  0 44  0  0
    1.0400    4.6210   -0.7043 H   0  0  0  0  0  0  0  0  0 45  0  0
    1.9453    4.1884    0.7705 H   0  0  0  0  0  0  0  0  0 46  0  0
    1.2776    2.2221    2.1627 H   0  0  0  0  0  0  0  0  0 47  0  0
   -0.5986    0.7919    2.8988 H   0  0  0  0  0  0  0  0  0 48  0  0
   -1.0315    3.4313   -1.2768 H   0  0  0  0  0  0  0  0  0 49  0  0
   -3.0359    2.6180   -1.4268 H   0  0  0  0  0  0  0  0  0 50  0  0
   -2.6610   -0.4208    1.4722 H   0  0  0  0  0  0  0  0  0 51  0  0
    0.9646    1.7396   -2.0745 H   0  0  0  0  0  0  0  0  0 52  0  0
    2.5383    1.8923   -2.8988 H   0  0  0  0  0  0  0  0  0 53  0  0
    1.4056    3.2904   -2.8803 H   0  0  0  0  0  0  0  0  0 54  0  0
    3.2957    1.0766   -0.7784 H   0  0  0  0  0  0  0  0  0 55  0  0
    2.0822    1.3264    0.2646 H   0  0  0  0  0  0  0  0  0 56  0  0
  1  2  1  0  0  0  0
  1  3  1  1  0  0  0
  1  4  2  0  0  0  0
  2  5  1  0  0  0  0
  2 14  1  6  0  0  0
  2 15  1  1  0  0  0
  3 16  1  0  0  0  0
  5  6  1  0  0  0  0
  5 17  1  6  0  0  0
  5 18  1  1  0  0  0
  6  7  2  0  0  0  0
  6 11  1  0  0  0  0
  7  8  1  0  0  0  0
  7 19  1  0  0  0  0
  8  9  2  0  0  0  0
  8 20  1  0  0  0  0
  9 10  1  0  0  0  0
  9 13  1  0  0  0  0
 10 11  2  0  0  0  0
 10 12  1  0  0  0  0
 11 21  1  0  0  0  0
 12 22  1  0  0  0  0
 13 23  1  0  0  0  0
 14 24  1  0  0  0  0
 14 25  1  0  0  0  0
 14 26  1  6  0  0  0
 15 27  1  1  0  0  0
 15 28  1  0  0  0  0
 29 30  1  0  0  0  0
 29 31  1  0  0  0  0
 29 32  2  0  0  0  0
 30 33  1  1  0  0  0
 30 42  1  6  0  0  0
 30 43  1  1  0  0  0
 31 44  1  0  0  0  0
 33 34  1  0  0  0  0
 33 45  1  6  0  0  0
 33 46  1  1  0  0  0
 34 35  2  0  0  0  0
 34 39  1  6  0  0  0
 35 36  1  0  0  0  0
 35 47  1  1  0  0  0
 36 37  2  0  0  0  0
 36 48  1  1  0  0  0
 37 38  1  6  0  0  0
 37 41  1  0  0  0  0
 38 39  2  0  0  0  0
 38 40  1  6  0  0  0
 39 49  1  6  0  0  0
 40 50  1  6  0  0  0
 41 51  1  0  0  0  0
 42 52  1  0  0  0  0
 42 53  1  6  0  0  0
 42 54  1  6  0  0  0
 43 55  1  6  0  0  0
 43 56  1  0  0  0  0
M  END
>  <Substance ID> (271)
271

>  <Mouse_Female_Canc> (271)
1

>  <SAL> (271)
1

>  <Rat_Male_Canc> (271)
1

>  <TD50_Rat> (271)
NP

>  <TD50_Mouse> (271)
NP

>  <Rat_Female_Canc> (271)
1

>  <Canc> (271)
2

>  <MolWeight> (271)
211.22

>  <Mouse_Male_Canc> (271)
2

>  <Mouse_Male_NTP> (271)
EE

>  <ChemName> (271)
Methyl Dopa Sesquihydrate

>  <Rat_Male_NTP> (271)
NE

>  <Reference> (271)
NTP348

>  <Formula> (271)
C10H13NO4

>  <SMILES> (271)
O=C(O)[C@]([N@H2])([C@@H3])[C@H2]c1ccc(O)c(O)c1.O=C(O)[C@@]([N@H2])([C@@H2]c1cc(O)c(O)cc1)[C@@H3]

>  <Rat_Female_NTP> (271)
NE

>  <CAS> (271)
41372-08-1

>  <Mouse_Female_NTP> (271)
NE

>  <Synonyms> (271)
alpha-Methyldopa sesquihydrate.

$$$$
272


 15 14  0  0  0  0  0  0  0  0999 V2000
   31.4453  -35.0067    0.0005 C   0  0  0  0  0  0  0  0  0  0  0  0
   32.5712  -34.2965   -0.0002 C   0  0  0  0  0  0  0  0  0  0  0  0
   33.8660  -34.9778    0.0002 C   0  0  0  0  0  0  0  0  0  0  0  0
   35.0425  -34.2353    0.0002 O   0  0  0  0  0  0  0  0  0  0  0  0
   36.1662  -35.1206   -0.0002 C   0  0  0  0  0  0  0  0  0  0  0  0
   33.9143  -36.2132    0.0002 O   0  0  0  0  0  0  0  0  0  0  0  0
   32.5118  -32.7961    0.0002 C   0  0  0  0  0  0  0  0  0  0  0  0
   30.5604  -34.5410    0.0002 H   0  0  0  0  0  0  0  0  0  0  0  0
   31.4844  -36.0059    0.0011 H   0  0  0  0  0  0  0  0  0  0  0  0
   37.0117  -34.5868   -0.0002 H   0  0  0  0  0  0  0  0  0  0  0  0
   36.1366  -35.6972   -0.8167 H   0  0  0  0  0  0  0  0  0  0  0  0
   36.1368  -35.6976    0.8161 H   0  0  0  0  0  0  0  0  0  0  0  0
   33.4405  -32.4252   -0.0004 H   0  0  0  0  0  0  0  0  0  0  0  0
   32.0283  -32.4813    0.8170 H   0  0  0  0  0  0  0  0  0  0  0  0
   32.0271  -32.4810   -0.8158 H   0  0  0  0  0  0  0  0  0  0  0  0
  1  2  2  0  0  0  0
  2  3  1  0  0  0  0
  3  4  1  0  0  0  0
  4  5  1  0  0  0  0
  3  6  2  0  0  0  0
  2  7  1  0  0  0  0
  1  8  1  0  0  0  0
  1  9  1  0  0  0  0
  5 10  1  0  0  0  0
  5 11  1  0  0  0  0
  5 12  1  0  0  0  0
  7 13  1  0  0  0  0
  7 14  1  0  0  0  0
  7 15  1  0  0  0  0
M  END
>  <Substance ID> (272)
272

>  <Mouse_Female_Canc> (272)
1

>  <SAL> (272)
1

>  <Rat_Male_Canc> (272)
1

>  <TD50_Rat> (272)
NP

>  <TD50_Mouse> (272)
NP

>  <Rat_Female_Canc> (272)
1

>  <Canc> (272)
1

>  <MolWeight> (272)
100.12

>  <Mouse_Male_Canc> (272)
1

>  <Mouse_Male_NTP> (272)
NE

>  <ChemName> (272)
Methyl Methacrylate 

>  <Rat_Male_NTP> (272)
NE

>  <Reference> (272)
NTP314

>  <Formula> (272)
C5H8O2

>  <SMILES> (272)
O=C(C(=C)C)OC

>  <Rat_Female_NTP> (272)
NE

>  <CAS> (272)
80-62-6

>  <Mouse_Female_NTP> (272)
NE

>  <Synonyms> (272)
2-methylacrylic acid methyl ester; diakon; Methacrylic Acid Methyl Ester; Methyl 2-Methyl-2-Propenoate; Methyl 2-methylpropenoate; methyl alpha-methylacrylate; MMA; MME.

$$$$
273


 23 24  0  0  0  0  0  0  0  0999 V2000
   37.7239  -44.7414   -0.0091 N   0  0  0  0  0  0  0  0  0  0  0  0
   38.6251  -45.8944   -0.0348 C   0  0  0  0  0  0  0  0  0  0  0  0
   39.9643  -45.1751   -0.0101 C   0  0  0  0  0  0  0  0  0  0  0  0
   39.8136  -43.7592    0.0197 N   0  0  0  0  0  0  0  0  0  0  0  0
   38.4227  -43.5220    0.0180 C   0  0  0  0  0  0  0  0  0  0  0  0
   33.0462  -43.3926   -0.0139 O   0  0  0  0  0  0  0  0  0  0  0  0
   31.9599  -44.3125    0.0017 C   0  0  0  0  0  0  0  0  0  0  0  0
   32.3393  -45.5822    0.0232 C   0  0  0  0  0  0  0  0  0  0  0  0
   33.7527  -45.5754    0.0223 C   0  0  0  0  0  0  0  0  0  0  0  0
   34.1327  -44.3039    0.0009 C   0  0  0  0  0  0  0  0  0  0  0  0
   35.5487  -43.9287   -0.0065 C   0  0  0  0  0  0  0  0  0  0  0  0
   36.3833  -44.8886   -0.0073 N   0  0  0  0  0  0  0  0  0  0  0  0
   37.9074  -42.3970    0.0404 O   0  0  0  0  0  0  0  0  0  0  0  0
   41.0582  -45.7569   -0.0156 O   0  0  0  0  0  0  0  0  0  0  0  0
   30.6257  -43.9341   -0.0058 N   0  3  0  0  0  0  0  0  0  0  0  0
   30.3039  -42.6571   -0.0377 O   0  5  0  0  0  0  0  0  0  0  0  0
   29.7881  -44.7576    0.0144 O   0  0  0  0  0  0  0  0  0  0  0  0
   38.5027  -46.4801    0.7664 H   0  0  0  0  0  0  0  0  0  0  0  0
   38.5101  -46.4379   -0.8663 H   0  0  0  0  0  0  0  0  0  0  0  0
   40.5426  -43.0749    0.0379 H   0  0  0  0  0  0  0  0  0  0  0  0
   31.7439  -46.3855    0.0372 H   0  0  0  0  0  0  0  0  0  0  0  0
   34.3520  -46.3758    0.0353 H   0  0  0  0  0  0  0  0  0  0  0  0
   35.8424  -42.9728   -0.0107 H   0  0  0  0  0  0  0  0  0  0  0  0
  1  2  1  0  0  0  0
  2  3  1  0  0  0  0
  3  4  1  0  0  0  0
  4  5  1  0  0  0  0
  5  1  1  0  0  0  0
  7  8  2  0  0  0  0
  6  7  1  0  0  0  0
  8  9  1  0  0  0  0
  9 10  2  0  0  0  0
 10  6  1  0  0  0  0
 10 11  1  0  0  0  0
 11 12  2  0  0  0  0
 12  1  1  0  0  0  0
  5 13  2  0  0  0  0
  3 14  2  0  0  0  0
 15 16  1  0  0  0  0
 15 17  2  0  0  0  0
  7 15  1  0  0  0  0
  2 18  1  0  0  0  0
  2 19  1  0  0  0  0
  4 20  1  0  0  0  0
  8 21  1  0  0  0  0
  9 22  1  0  0  0  0
 11 23  1  0  0  0  0
M  END
>  <Substance ID> (273)
273

>  <Mouse_Female_Canc> (273)
3

>  <SAL> (273)
3

>  <Rat_Male_Canc> (273)
3

>  <TD50_Rat> (273)
163

>  <TD50_Mouse> (273)
1400

>  <Rat_Female_Canc> (273)
1

>  <Canc> (273)
3

>  <MolWeight> (273)
238.16

>  <Mouse_Male_Canc> (273)
1

>  <Mouse_Male_NTP> (273)
NE

>  <ChemName> (273)
Nitrofurantoin

>  <Rat_Male_NTP> (273)
SE

>  <Reference> (273)
NTP341

>  <Formula> (273)
C8H6N4O5

>  <SMILES> (273)
O=C1N(CC(=O)N1)/N=C/C2=CC=C(O2)[N+](=O)[O-]

>  <Rat_Female_NTP> (273)
NE

>  <CAS> (273)
67-20-9

>  <Mouse_Female_NTP> (273)
CE

>  <Synonyms> (273)
1-(((5-nitro-2-furanyl)methylene)amino)-2,4-imidazolidinedione; 1-(5-nitro-2-furfurylideneamino)hydantoin; 1-[(5-Nitrofurfurylidene)amino]hydantoin; benkfuran; berkfurin; chemiofuran; cyantin; cystit; dantafur; fua-med; furachel; furadantin; furadantoin; furadoine; furadonin; furalan; furantoin; Furatoin; furobactina; furophen; ituran; Macrobid; Macrodantin; N-(5-nitro-2-furfurylidene)-1-aminohydantoin; N-(5-nitrofurfurylidene)-1-aminohydantoin; nifurantin; N-toin; orafuran; parfuran; trantoin; urantoin; urizept; urodil; urodin; urolong; uro-tablineu; welfurin; zoofurin.

$$$$
274


 20 20  0  0  0  0  0  0  0  0999 V2000
   32.1186  -55.4608    0.0030 O   0  0  0  0  0  0  0  0  0  0  0  0
   33.2673  -54.6430   -0.0005 C   0  0  0  0  0  0  0  0  0  0  0  0
   32.9879  -53.3440   -0.0038 C   0  0  0  0  0  0  0  0  0  0  0  0
   31.5593  -53.2429   -0.0028 C   0  0  0  0  0  0  0  0  0  0  0  0
   31.1001  -54.4891    0.0008 C   0  0  0  0  0  0  0  0  0  0  0  0
   34.6269  -55.1996   -0.0010 C   0  0  0  0  0  0  0  0  0  0  0  0
   35.6629  -54.4655   -0.0040 N   0  0  0  0  0  0  0  0  0  0  0  0
   36.8578  -55.0671   -0.0044 N   0  0  0  0  0  0  0  0  0  0  0  0
   38.0432  -54.3314    0.0016 C   0  0  0  0  0  0  0  0  0  0  0  0
   39.3050  -55.0132    0.0025 N   0  0  0  0  0  0  0  0  0  0  0  0
   38.0047  -53.0972    0.0067 O   0  0  0  0  0  0  0  0  0  0  0  0
   29.7484  -54.8193    0.0013 N   0  3  0  0  0  0  0  0  0  0  0  0
   28.8303  -53.8702   -0.0050 O   0  5  0  0  0  0  0  0  0  0  0  0
   29.4312  -55.9500    0.0061 O   0  0  0  0  0  0  0  0  0  0  0  0
   33.6434  -52.5887   -0.0063 H   0  0  0  0  0  0  0  0  0  0  0  0
   31.0167  -52.4029   -0.0046 H   0  0  0  0  0  0  0  0  0  0  0  0
   34.7406  -56.1932    0.0012 H   0  0  0  0  0  0  0  0  0  0  0  0
   36.9023  -56.0661   -0.0091 H   0  0  0  0  0  0  0  0  0  0  0  0
   40.1565  -54.4890    0.0068 H   0  0  0  0  0  0  0  0  0  0  0  0
   39.3332  -56.0127   -0.0011 H   0  0  0  0  0  0  0  0  0  0  0  0
  4  5  2  0  0  0  0
  2  3  2  0  0  0  0
  1  2  1  0  0  0  0
  3  4  1  0  0  0  0
  5  1  1  0  0  0  0
  2  6  1  0  0  0  0
  6  7  2  0  0  0  0
  7  8  1  0  0  0  0
  8  9  1  0  0  0  0
  9 10  1  0  0  0  0
  9 11  2  0  0  0  0
 12 13  1  0  0  0  0
 12 14  2  0  0  0  0
  5 12  1  0  0  0  0
  3 15  1  0  0  0  0
  4 16  1  0  0  0  0
  6 17  1  0  0  0  0
  8 18  1  0  0  0  0
 10 19  1  0  0  0  0
 10 20  1  0  0  0  0
M  END
>  <Substance ID> (274)
274

>  <Mouse_Female_Canc> (274)
3

>  <SAL> (274)
3

>  <Rat_Male_Canc> (274)
2

>  <TD50_Rat> (274)
6.98

>  <TD50_Mouse> (274)
30.8

>  <Rat_Female_Canc> (274)
3

>  <Canc> (274)
3

>  <MolWeight> (274)
198.14

>  <Mouse_Male_Canc> (274)
1

>  <Mouse_Male_NTP> (274)
NE

>  <ChemName> (274)
Nitrofurazone

>  <Rat_Male_NTP> (274)
EE

>  <Reference> (274)
NTP337

>  <Formula> (274)
C6H6N4O4

>  <SMILES> (274)
O=[N+](C1=CC=C(O1)/C=N/NC(=O)N)[O-]

>  <Rat_Female_NTP> (274)
CE

>  <CAS> (274)
59-87-0

>  <Mouse_Female_NTP> (274)
CE

>  <Synonyms> (274)
2-[(5-Nitro-2-furanyl)methylene]-hydrazinecarboxamide; 2-furaldehyde, 5-nitro-, semicarbazole; 5-Nitro-2-furaldehyde Semicarbazone; 5-nitro-2-furancarboxaldehyde semicarbazone; 5-nitro-2-furfuraldehyde semicarbazone; 5-nitro-2-furfural semicarbazone; (5-nitro-2-furfurylideneamino)urea; 5-Nitro-2-furfurylidene semicarbazone; 5-nitrofuraldehyde semicarbazide; 5-nitrofuraldehyde semicarbazone; 5-nitrofuran-2-aldehyde semicarbazone; 5-nitrofurfural semicarbazone; 6-nitrofuraldehyde semicarbazide; Aldomycin; alfucin; Amifur; babrocid; becafurazone; biofuracina; biofurea; Chemofuran; chixin; cocafurin; Coxistat; dermofural; dyanazone; eldezol; eldezol f-6; fedacin; flavazone; fracine; furacilin; furacillin; Furacin; Furacinetten; furacin-hc; Furacoccid; furacort; furacycline; furaldon; furalone; furametral; furan-ofteno; Furaplast; furaseptyl; furaskin; furaziline; furazin; furazina; Furazol W; furazone; Furesol; furfurin; furosem; fuvacillin; hemofuran; ibiofural; Mammex; mastofuran; monofuracin; Nefco; NF; NF-7; NFS; NFZ; nifucin; nifurid; Nifuzon; Nitrofural; nitrofurazan; Nitrorural; Nitrozone; otofuran; sanfuran; spray-dermis; spray-foral; U-6421; Vabrocid; vadrocid; veterinary nitrofurazone; yatrocin.

$$$$
275


 57 60  0  0  0  0  0  0  0  0999 V2000
   35.3731  -67.6049    0.1626 C   0  0  0  0  0  0  0  0  0  0  0  0
   36.6554  -66.9327   -0.0668 C   0  0  0  0  0  0  0  0  0  0  0  0
   36.7203  -65.5964   -0.1711 C   0  0  0  0  0  0  0  0  0  0  0  0
   35.4583  -64.6917    0.0886 C   0  0  2  0  0  0  0  0  0  0  0  0
   34.1015  -66.8986   -0.1439 C   0  0  2  0  0  0  0  0  0  0  0  0
   34.1823  -65.4402   -0.6353 C   0  0  2  0  0  0  0  0  0  0  0  0
   32.8092  -64.7700   -0.3010 C   0  0  2  0  0  0  0  0  0  0  0  0
   32.7785  -67.5130    0.2927 C   0  0  0  0  0  0  0  0  0  0  0  0
   31.6047  -66.9244    0.0097 C   0  0  0  0  0  0  0  0  0  0  0  0
   31.5419  -65.5814   -0.6742 C   0  0  2  0  0  0  0  0  0  0  0  0
   30.2559  -64.8257   -0.1298 C   0  0  2  0  0  0  0  0  0  0  0  0
   30.3258  -67.6158    0.3054 C   0  0  0  0  0  0  0  0  0  0  0  0
   29.0408  -66.9482    0.0074 C   0  0  0  0  0  0  0  0  0  0  0  0
   29.0105  -65.6381   -0.2286 C   0  0  0  0  0  0  0  0  0  0  0  0
   26.6027  -65.6599   -0.5262 C   0  0  0  0  0  0  0  0  0  0  0  0
   26.6250  -67.0954   -0.2704 C   0  0  0  0  0  0  0  0  0  0  0  0
   27.7370  -64.9676   -0.5091 C   0  0  0  0  0  0  0  0  0  0  0  0
   27.7765  -67.7150   -0.0177 C   0  0  0  0  0  0  0  0  0  0  0  0
   27.7714  -69.0847    0.2131 O   0  0  0  0  0  0  0  0  0  0  0  0
   30.3259  -68.7775    0.7218 O   0  0  0  0  0  0  0  0  0  0  0  0
   32.7932  -68.7515    0.9184 O   0  0  0  0  0  0  0  0  0  0  0  0
   33.9017  -67.4440   -1.4554 O   0  0  0  0  0  0  0  0  0  0  0  0
   35.3386  -68.7936    0.4919 O   0  0  0  0  0  0  0  0  0  0  0  0
   37.8987  -67.7613   -0.1825 C   0  0  0  0  0  0  0  0  0  0  0  0
   39.1852  -67.1593   -0.3811 N   0  0  0  0  0  0  0  0  0  0  0  0
   37.8382  -68.9918   -0.0870 O   0  0  0  0  0  0  0  0  0  0  0  0
   35.8484  -63.1721   -0.2236 N   0  0  0  0  0  0  0  0  0  0  0  0
   36.9863  -62.7211    0.6141 C   0  0  0  0  0  0  0  0  0  0  0  0
   34.8588  -62.1292    0.0856 C   0  0  0  0  0  0  0  0  0  0  0  0
   32.7535  -63.5168   -0.9291 O   0  0  0  0  0  0  0  0  0  0  0  0
   29.9758  -63.4266   -0.7417 C   0  0  0  0  0  0  0  0  0  0  0  0
   30.4854  -64.6633    1.2751 O   0  0  0  0  0  0  0  0  0  0  0  0
   37.9597  -65.0307   -0.4655 O   0  0  0  0  0  0  0  0  0  0  0  0
   35.1390  -64.5984    1.0317 H   0  0  0  0  0  0  0  0  0  0  0  0
   34.3400  -65.3760   -1.6207 H   0  0  0  0  0  0  0  0  0  0  0  0
   32.7863  -64.7051    0.6967 H   0  0  0  0  0  0  0  0  0  0  0  0
   31.4949  -65.6859   -1.6676 H   0  0  0  0  0  0  0  0  0  0  0  0
   25.7361  -65.1975   -0.7141 H   0  0  0  0  0  0  0  0  0  0  0  0
   25.7718  -67.6169   -0.2848 H   0  0  0  0  0  0  0  0  0  0  0  0
   27.7220  -63.9840   -0.6885 H   0  0  0  0  0  0  0  0  0  0  0  0
   26.8343  -69.4292    0.1567 H   0  0  0  0  0  0  0  0  0  0  0  0
   31.8576  -69.0225    1.1444 H   0  0  0  0  0  0  0  0  0  0  0  0
   33.0591  -67.0735   -1.8462 H   0  0  0  0  0  0  0  0  0  0  0  0
   40.0001  -67.7341   -0.4552 H   0  0  0  0  0  0  0  0  0  0  0  0
   39.2673  -66.1648   -0.4454 H   0  0  0  0  0  0  0  0  0  0  0  0
   37.2053  -61.7701    0.3958 H   0  0  0  0  0  0  0  0  0  0  0  0
   37.7837  -63.2965    0.4319 H   0  0  0  0  0  0  0  0  0  0  0  0
   36.7383  -62.7921    1.5803 H   0  0  0  0  0  0  0  0  0  0  0  0
   35.2308  -61.2335   -0.1576 H   0  0  0  0  0  0  0  0  0  0  0  0
   34.6484  -62.1481    1.0630 H   0  0  0  0  0  0  0  0  0  0  0  0
   34.0234  -62.2961   -0.4381 H   0  0  0  0  0  0  0  0  0  0  0  0
   31.8789  -63.0783   -0.7222 H   0  0  0  0  0  0  0  0  0  0  0  0
   29.1488  -63.0423   -0.3314 H   0  0  0  0  0  0  0  0  0  0  0  0
   29.8476  -63.5139   -1.7296 H   0  0  0  0  0  0  0  0  0  0  0  0
   30.7504  -62.8211   -0.5587 H   0  0  0  0  0  0  0  0  0  0  0  0
   29.7074  -64.1896    1.6878 H   0  0  0  0  0  0  0  0  0  0  0  0
   37.8695  -64.0360   -0.5145 H   0  0  0  0  0  0  0  0  0  0  0  0
  6  4  1  0  0  0  0
  5  1  1  0  0  0  0
  1  2  1  0  0  0  0
  2  3  2  0  0  0  0
  3  4  1  0  0  0  0
  5  6  1  0  0  0  0
  5  8  1  0  0  0  0
  6  7  1  0  0  0  0
  7 10  1  0  0  0  0
  9  8  2  0  0  0  0
  9 10  1  0  0  0  0
  9 12  1  0  0  0  0
 10 11  1  0  0  0  0
 11 14  1  0  0  0  0
 13 12  1  0  0  0  0
 13 14  2  0  0  0  0
 15 16  1  0  0  0  0
 13 18  1  0  0  0  0
 14 17  1  0  0  0  0
 17 15  2  0  0  0  0
 16 18  2  0  0  0  0
 18 19  1  0  0  0  0
 12 20  2  0  0  0  0
  8 21  1  0  0  0  0
  5 22  1  6  0  0  0
  1 23  2  0  0  0  0
  2 24  1  0  0  0  0
 24 25  1  0  0  0  0
 24 26  2  0  0  0  0
  4 27  1  6  0  0  0
 27 28  1  0  0  0  0
 27 29  1  0  0  0  0
  7 30  1  6  0  0  0
 11 31  1  6  0  0  0
 11 32  1  0  0  0  0
  3 33  1  0  0  0  0
  4 34  1  0  0  0  0
  6 35  1  0  0  0  0
  7 36  1  0  0  0  0
 10 37  1  0  0  0  0
 15 38  1  0  0  0  0
 16 39  1  0  0  0  0
 17 40  1  0  0  0  0
 19 41  1  0  0  0  0
 21 42  1  0  0  0  0
 22 43  1  0  0  0  0
 25 44  1  0  0  0  0
 25 45  1  0  0  0  0
 28 46  1  0  0  0  0
 28 47  1  0  0  0  0
 28 48  1  0  0  0  0
 29 49  1  0  0  0  0
 29 50  1  0  0  0  0
 29 51  1  0  0  0  0
 30 52  1  0  0  0  0
 31 53  1  0  0  0  0
 31 54  1  0  0  0  0
 31 55  1  0  0  0  0
 32 56  1  0  0  0  0
 33 57  1  0  0  0  0
M  END
>  <Substance ID> (275)
275

>  <Mouse_Female_Canc> (275)
1

>  <SAL> (275)
1

>  <Rat_Male_Canc> (275)
2

>  <TD50_Rat> (275)
NP

>  <TD50_Mouse> (275)
NP

>  <Rat_Female_Canc> (275)
2

>  <Canc> (275)
2

>  <MolWeight> (275)
495.94

>  <Mouse_Male_Canc> (275)
1

>  <Mouse_Male_NTP> (275)
NE

>  <ChemName> (275)
Oxytetracycline Hydrochloride

>  <Rat_Male_NTP> (275)
EE

>  <Reference> (275)
NTP315

>  <Formula> (275)
C22H24N2O9.HCl

>  <SMILES> (275)
O[C@@]12C([C@H](C3[C@](C4=C(C(=CC=C4)O)C(=O)C/3=C\1O)(C)O)O)[C@@H](/C(=C(\C2=O)C(=O)N)O)N(C)C.Cl

>  <Rat_Female_NTP> (275)
EE

>  <CAS> (275)
2058-46-0

>  <Mouse_Female_NTP> (275)
NE

>  <Synonyms> (275)
2-Naphthacenecarboxamide, 4-(dimethylamino)-1,4,4a,5,5a,6,11,12a-octahydro-3,5,6,10,12,12a-hexahydroxy-6-methyl-1,11-dioxo-, monohydrochloride, [4S-(4alpha,4aalpha,5alpha,5aalpha,6beta,12aalpha)]-; 4-(dimethylamino)-1,4,4a,5,5a,6,11,12a-octahydro-3,5,6,10,12,12a-hexahydroxy-6-methyl-1,11-dioxo-2-naphthacenecarboxamide monohydrochloride; 5-Hydroxytetracycline hydrochloride; Aquacycline; bisolvomycin; hydrocyclin; Hydroxytetracycline monohydrochloride; liquamycin injectable; Medamycin; Medemycin; Mepatar; Naphthacenecarboxamide, 4-(dimethylamino)-1,4,4a,5,5a,6,11,12a-octahydro-3,5,6,10,12,12a-hexahydroxy-6-methyl-1,11-dioxo-, monohydrochloride, (4S-(4alpha,4aalpha,5alpha,5aalpha,6beta,12aalpha))-; otetryn; oxlopar; oxyject 100; Oxytet; Oxytetracycline hydrochloride, can be used as secondary standard; OXY WS; terramycin hydrochloride; tetramine; tetran hydrochloride.

$$$$
276


 25 25  0  0  0  0  0  0  0  0999 V2000
   35.1572  -78.7439   -0.0357 C   0  0  0  0  0  0  0  0  0  0  0  0
   34.4858  -77.5968   -0.0756 C   0  0  0  0  0  0  0  0  0  0  0  0
   36.5486  -76.3224   -0.0346 C   0  0  0  0  0  0  0  0  0  0  0  0
   37.2854  -77.5878    0.0078 C   0  0  0  0  0  0  0  0  0  0  0  0
   35.2170  -76.3255   -0.0755 C   0  0  0  0  0  0  0  0  0  0  0  0
   36.6105  -78.7371    0.0046 C   0  0  0  0  0  0  0  0  0  0  0  0
   34.4744  -79.9541   -0.0326 O   0  0  0  0  0  0  0  0  0  0  0  0
   38.8057  -77.5654    0.0472 C   0  0  1  0  0  0  0  0  0  0  0  0
   39.4563  -78.8939   -0.4421 C   0  0  0  0  0  0  0  0  0  0  0  0
   39.2566  -76.4552   -0.7301 O   0  0  0  0  0  0  0  0  0  0  0  0
   39.0865  -80.0325    0.4214 N   0  0  0  0  0  0  0  0  0  0  0  0
   39.6313  -81.2745   -0.1390 C   0  0  0  0  0  0  0  0  0  0  0  0
   33.4863  -77.6009   -0.1057 H   0  0  0  0  0  0  0  0  0  0  0  0
   37.0460  -75.4549   -0.0327 H   0  0  0  0  0  0  0  0  0  0  0  0
   34.7159  -75.4606   -0.1060 H   0  0  0  0  0  0  0  0  0  0  0  0
   37.1088  -79.6037    0.0303 H   0  0  0  0  0  0  0  0  0  0  0  0
   35.1309  -80.7077   -0.0003 H   0  0  0  0  0  0  0  0  0  0  0  0
   39.0927  -77.4683    1.0002 H   0  0  0  0  0  0  0  0  0  0  0  0
   39.1484  -79.0812   -1.3749 H   0  0  0  0  0  0  0  0  0  0  0  0
   40.4508  -78.7901   -0.4333 H   0  0  0  0  0  0  0  0  0  0  0  0
   40.2559  -76.4225   -0.7171 H   0  0  0  0  0  0  0  0  0  0  0  0
   39.4598  -79.8895    1.3381 H   0  0  0  0  0  0  0  0  0  0  0  0
   39.3794  -82.0441    0.4477 H   0  0  0  0  0  0  0  0  0  0  0  0
   40.6277  -81.2081   -0.1915 H   0  0  0  0  0  0  0  0  0  0  0  0
   39.2585  -81.4188   -1.0557 H   0  0  0  0  0  0  0  0  0  0  0  0
  1  2  2  0  0  0  0
  3  4  1  0  0  0  0
  1  6  1  0  0  0  0
  2  5  1  0  0  0  0
  5  3  2  0  0  0  0
  4  6  2  0  0  0  0
  1  7  1  0  0  0  0
  4  8  1  0  0  0  0
  8  9  1  0  0  0  0
  8 10  1  6  0  0  0
  9 11  1  0  0  0  0
 11 12  1  0  0  0  0
  2 13  1  0  0  0  0
  3 14  1  0  0  0  0
  5 15  1  0  0  0  0
  6 16  1  0  0  0  0
  7 17  1  0  0  0  0
  8 18  1  0  0  0  0
  9 19  1  0  0  0  0
  9 20  1  0  0  0  0
 10 21  1  0  0  0  0
 11 22  1  0  0  0  0
 12 23  1  0  0  0  0
 12 24  1  0  0  0  0
 12 25  1  0  0  0  0
M  END
>  <Substance ID> (276)
276

>  <Mouse_Female_Canc> (276)
1

>  <SAL> (276)
1

>  <Rat_Male_Canc> (276)
1

>  <TD50_Rat> (276)
NP

>  <TD50_Mouse> (276)
NP

>  <Rat_Female_Canc> (276)
1

>  <Canc> (276)
1

>  <MolWeight> (276)
202.71

>  <Mouse_Male_Canc> (276)
1

>  <Mouse_Male_NTP> (276)
NE

>  <ChemName> (276)
Phenylephrine Hydrochloride

>  <Rat_Male_NTP> (276)
NE

>  <Reference> (276)
NTP322

>  <Formula> (276)
C9H13NO2.HCl

>  <SMILES> (276)
C1([C@H](CNC)O)(=CC(=CC=C1)O).Cl

>  <Rat_Female_NTP> (276)
NE

>  <CAS> (276)
61-76-7

>  <Mouse_Female_NTP> (276)
NE

>  <Synonyms> (276)
3-Hydroxy-alpha-(methylaminomethyl)benzyl alcohol hydrochloride; (-)-m-hydroxy-alpha-((methylamino)methyl)benzyl alcohol hydrochloride; (-)-3-hydroxy-alpha-((methylamino)methyl)benzenemethanol, hydrochloride; meta-Synephrine hydrochloride; biomydrin; consdrin hydrochloride; D-(-)-phenylephrine hydrochloride; isophrin hydrochloride; L-1-(m-hydroxyphenyl)-2-methyl-aminoethanol hydrochloride; L-Phenylephrine Hydrochloride; neosynephrine hydrocholride; (R)-3-hydroxy-a-[(methylamino)methyl]-benzenemethanol hydrochloride.

$$$$
277


 30 32  0  0  0  0  0  0  0  0999 V2000
   28.8984  -89.0404    0.0004 C   0  0  0  0  0  0  0  0  0  0  0  0
   28.8009  -90.3692    0.0007 C   0  0  0  0  0  0  0  0  0  0  0  0
   30.0097  -91.1852   -0.0008 C   0  0  0  0  0  0  0  0  0  0  0  0
   30.2192  -88.3995   -0.0011 C   0  0  0  0  0  0  0  0  0  0  0  0
   31.3177  -89.1520   -0.0009 C   0  0  0  0  0  0  0  0  0  0  0  0
   31.2021  -90.5972   -0.0013 C   0  0  0  0  0  0  0  0  0  0  0  0
   33.5803  -90.7988   -0.0082 C   0  0  0  0  0  0  0  0  0  0  0  0
   33.7429  -89.3135   -0.0038 C   0  0  0  0  0  0  0  0  0  0  0  0
   32.3940  -91.3922   -0.0048 C   0  0  0  0  0  0  0  0  0  0  0  0
   32.6520  -88.5403   -0.0005 C   0  0  0  0  0  0  0  0  0  0  0  0
   35.0431  -88.6626   -0.0032 N   0  0  0  0  0  0  0  0  0  0  0  0
   36.3564  -89.2886    0.0005 C   0  0  0  0  0  0  0  0  0  0  0  0
   36.5386  -90.6120    0.0040 C   0  0  0  0  0  0  0  0  0  0  0  0
   38.9376  -90.4078    0.0072 C   0  0  0  0  0  0  0  0  0  0  0  0
   38.7650  -88.9547    0.0044 C   0  0  0  0  0  0  0  0  0  0  0  0
   37.8698  -91.1976    0.0075 C   0  0  0  0  0  0  0  0  0  0  0  0
   37.5421  -88.4228    0.0013 C   0  0  0  0  0  0  0  0  0  0  0  0
   28.0709  -88.4790    0.0012 H   0  0  0  0  0  0  0  0  0  0  0  0
   27.9013  -90.8059    0.0020 H   0  0  0  0  0  0  0  0  0  0  0  0
   29.9420  -92.1829   -0.0014 H   0  0  0  0  0  0  0  0  0  0  0  0
   30.2935  -87.4023   -0.0022 H   0  0  0  0  0  0  0  0  0  0  0  0
   34.4010  -91.3701   -0.0140 H   0  0  0  0  0  0  0  0  0  0  0  0
   32.3318  -92.3903   -0.0046 H   0  0  0  0  0  0  0  0  0  0  0  0
   32.7452  -87.5447    0.0021 H   0  0  0  0  0  0  0  0  0  0  0  0
   35.0335  -87.6627   -0.0057 H   0  0  0  0  0  0  0  0  0  0  0  0
   35.7405  -91.2145    0.0042 H   0  0  0  0  0  0  0  0  0  0  0  0
   39.8556  -90.8044    0.0089 H   0  0  0  0  0  0  0  0  0  0  0  0
   39.5675  -88.3579    0.0047 H   0  0  0  0  0  0  0  0  0  0  0  0
   37.9808  -92.1914    0.0101 H   0  0  0  0  0  0  0  0  0  0  0  0
   37.4321  -87.4288   -0.0005 H   0  0  0  0  0  0  0  0  0  0  0  0
  1  2  2  0  0  0  0
  1  4  1  0  0  0  0
  2  3  1  0  0  0  0
  3  6  2  0  0  0  0
  5  4  2  0  0  0  0
  5  6  1  0  0  0  0
  7  8  1  0  0  0  0
  5 10  1  0  0  0  0
  6  9  1  0  0  0  0
  9  7  2  0  0  0  0
  8 10  2  0  0  0  0
  8 11  1  0  0  0  0
 11 12  1  0  0  0  0
 12 13  2  0  0  0  0
 14 15  1  0  0  0  0
 12 17  1  0  0  0  0
 13 16  1  0  0  0  0
 16 14  2  0  0  0  0
 15 17  2  0  0  0  0
  1 18  1  0  0  0  0
  2 19  1  0  0  0  0
  3 20  1  0  0  0  0
  4 21  1  0  0  0  0
  7 22  1  0  0  0  0
  9 23  1  0  0  0  0
 10 24  1  0  0  0  0
 11 25  1  0  0  0  0
 13 26  1  0  0  0  0
 14 27  1  0  0  0  0
 15 28  1  0  0  0  0
 16 29  1  0  0  0  0
 17 30  1  0  0  0  0
M  END
>  <Substance ID> (277)
277

>  <Mouse_Female_Canc> (277)
2

>  <SAL> (277)
1

>  <Rat_Male_Canc> (277)
1

>  <TD50_Rat> (277)
NP

>  <TD50_Mouse> (277)
NP

>  <Rat_Female_Canc> (277)
1

>  <Canc> (277)
2

>  <MolWeight> (277)
219.29

>  <Mouse_Male_Canc> (277)
1

>  <Mouse_Male_NTP> (277)
NE

>  <ChemName> (277)
N-Phenyl-2-Naphthylamine

>  <Rat_Male_NTP> (277)
NE

>  <Reference> (277)
NTP333

>  <Formula> (277)
C16H13N

>  <SMILES> (277)
C1=C2C(=CC=C1NC3=CC=CC=C3)C=CC=C2

>  <Rat_Female_NTP> (277)
NE

>  <CAS> (277)
135-88-6

>  <Mouse_Female_NTP> (277)
EE

>  <Synonyms> (277)
2-anilinonaphthalene; 2-naphthylphenylamine; phenyl-2-naphthylamine; Phenyl-beta-naphthylamine; stabilizator ar; stabilizer ar; vulkanox pbn; 2-(N-Phenylamino)naphthalene; 2-phenylaminonaphthalene; aceto pbn; Agerite; anilinonaphthalene; antioxidant 116; antioxidant pbn; beta-naphthylphenylamine; N-(2-naphthyl)aniline; N-(2-naphthyl)-N-phenylamine; naftam 2; N-beta-naphthyl-N-phenylamine; neosone d; neozone; neozon d; nilox pbna; nocrac d; nonox d; nonox dn; N-Phenyl-2-Naphthalenamine; N-Phenyl-beta-naphthylamine; PBN; PBNA.

$$$$
278


 51 55  0  0  0  0  0  0  0  0999 V2000
    0.6176   -2.0696   -0.7319 O   0  0  0  0  0  0  0  0  0  1  0  0
    0.6873   -0.8482   -0.6627 C   0  0  0  0  0  0  0  0  0  2  0  0
    1.9740   -0.1169   -0.7759 C   0  0  0  0  0  0  0  0  0  3  0  0
   -0.5195    0.0584   -0.4474 C   0  0  1  0  0  0  0  0  0  4  0  0
    1.9404    1.2920   -0.8679 C   0  0  0  0  0  0  0  0  0  5  0  0
    3.1809   -0.8383   -0.7378 C   0  0  0  0  0  0  0  0  0  6  0  0
   -0.3410    1.2592   -1.3742 C   0  0  2  0  0  0  0  0  0  7  0  0
   -1.8974   -0.5449   -0.6251 C   0  0  0  0  0  0  0  0  0  8  0  0
    3.1825    1.9143   -0.9854 C   0  0  0  0  0  0  0  0  0  9  0  0
    0.7843    2.0158   -0.9687 O   0  0  0  0  0  0  0  0  0 10  0  0
    4.4096   -0.1798   -0.8174 C   0  0  0  0  0  0  0  0  0 11  0  0
   -1.5874    2.1200   -1.3459 C   0  0  0  0  0  0  0  0  0 12  0  0
   -2.8752    0.1500   -1.3510 C   0  0  0  0  0  0  0  0  0 13  0  0
   -2.2211   -1.7812   -0.0563 C   0  0  0  0  0  0  0  0  0 14  0  0
    4.3807    1.2070   -0.9430 C   0  0  0  0  0  0  0  0  0 15  0  0
    3.4739    3.3734   -1.1810 C   0  0  0  0  0  0  0  0  0 16  0  0
   -2.6712    1.3914   -1.8916 O   0  0  0  0  0  0  0  0  0 17  0  0
   -4.1406   -0.4402   -1.4335 C   0  0  0  0  0  0  0  0  0 18  0  0
   -3.4749   -2.3945   -0.1876 C   0  0  0  0  0  0  0  0  0 19  0  0
    5.4596    2.0546   -1.0450 O   0  0  0  0  0  0  0  0  0 20  0  0
    5.0087    3.4096   -0.9620 C   0  0  1  0  0  0  0  0  0 21  0  0
   -4.4836   -1.6569   -0.8335 C   0  0  0  0  0  0  0  0  0 22  0  0
   -3.7987   -3.6254    0.3289 O   0  0  0  0  0  0  0  0  0 23  0  0
    5.4904    3.9719    0.3598 C   0  0  0  0  0  0  0  0  0 24  0  0
   -5.7261   -2.2000   -1.0388 O   0  0  0  0  0  0  0  0  0 25  0  0
   -2.8074   -4.3549    1.0255 C   0  0  0  0  0  0  0  0  0 26  0  0
    6.9131    4.4806    0.3636 C   0  0  0  0  0  0  0  0  0 27  0  0
    4.7549    3.9677    1.4830 C   0  0  0  0  0  0  0  0  0 28  0  0
   -6.6474   -1.9030   -0.0063 C   0  0  0  0  0  0  0  0  0 29  0  0
   -0.4740    0.3949    0.6180 H   0  0  0  0  0  0  0  0  0 30  0  0
    3.1782   -1.9354   -0.6349 H   0  0  0  0  0  0  0  0  0 31  0  0
   -0.1713    0.9207   -2.4265 H   0  0  0  0  0  0  0  0  0 32  0  0
    5.3638   -0.7266   -0.7834 H   0  0  0  0  0  0  0  0  0 33  0  0
   -1.4540    3.0366   -1.9660 H   0  0  0  0  0  0  0  0  0 34  0  0
   -1.8430    2.4344   -0.3079 H   0  0  0  0  0  0  0  0  0 35  0  0
   -1.4381   -2.2805    0.5311 H   0  0  0  0  0  0  0  0  0 36  0  0
    2.8917    4.0424   -0.5137 H   0  0  0  0  0  0  0  0  0 37  0  0
    3.2187    3.6269   -2.2372 H   0  0  0  0  0  0  0  0  0 38  0  0
   -4.9223    0.0977   -1.9963 H   0  0  0  0  0  0  0  0  0 39  0  0
    5.4875    3.9763   -1.7959 H   0  0  0  0  0  0  0  0  0 40  0  0
   -2.4905   -3.8042    1.9389 H   0  0  0  0  0  0  0  0  0 41  0  0
   -1.9481   -4.5772    0.3540 H   0  0  0  0  0  0  0  0  0 42  0  0
   -3.2592   -5.3213    1.3428 H   0  0  0  0  0  0  0  0  0 43  0  0
    7.6107    3.6645    0.0671 H   0  0  0  0  0  0  0  0  0 44  0  0
    7.2351    4.8500    1.3626 H   0  0  0  0  0  0  0  0  0 45  0  0
    7.0276    5.3213   -0.3571 H   0  0  0  0  0  0  0  0  0 46  0  0
    5.1564    4.3663    2.4265 H   0  0  0  0  0  0  0  0  0 47  0  0
    3.7361    3.5584    1.5215 H   0  0  0  0  0  0  0  0  0 48  0  0
   -6.8132   -0.8038    0.0485 H   0  0  0  0  0  0  0  0  0 49  0  0
   -6.2680   -2.2849    0.9677 H   0  0  0  0  0  0  0  0  0 50  0  0
   -7.6107   -2.4066   -0.2444 H   0  0  0  0  0  0  0  0  0 51  0  0
  1  2  2  0  0  0  0
  2  3  1  0  0  0  0
  2  4  1  0  0  0  0
  3  5  2  0  0  0  0
  3  6  1  0  0  0  0
  4  7  1  6  0  0  0
  4  8  1  0  0  0  0
  4 30  1  1  0  0  0
  5  9  1  0  0  0  0
  5 10  1  0  0  0  0
  6 11  2  0  0  0  0
  6 31  1  0  0  0  0
  7 10  1  0  0  0  0
  7 12  1  0  0  0  0
  7 32  1  6  0  0  0
  8 13  2  0  0  0  0
  8 14  1  0  0  0  0
  9 15  2  0  0  0  0
  9 16  1  0  0  0  0
 11 15  1  0  0  0  0
 11 33  1  0  0  0  0
 12 17  1  0  0  0  0
 12 34  1  6  0  0  0
 12 35  1  1  0  0  0
 13 17  1  0  0  0  0
 13 18  1  0  0  0  0
 14 19  2  0  0  0  0
 14 36  1  1  0  0  0
 15 20  1  0  0  0  0
 16 21  1  0  0  0  0
 16 37  1  1  0  0  0
 16 38  1  6  0  0  0
 18 22  2  0  0  0  0
 18 39  1  6  0  0  0
 19 22  1  6  0  0  0
 19 23  1  0  0  0  0
 20 21  1  0  0  0  0
 21 24  1  1  0  0  0
 21 40  1  6  0  0  0
 22 25  1  0  0  0  0
 23 26  1  1  0  0  0
 24 27  1  0  0  0  0
 24 28  2  0  0  0  0
 25 29  1  1  0  0  0
 26 41  1  1  0  0  0
 26 42  1  6  0  0  0
 26 43  1  0  0  0  0
 27 44  1  0  0  0  0
 27 45  1  1  0  0  0
 27 46  1  6  0  0  0
 28 47  1  1  0  0  0
 28 48  1  0  0  0  0
 29 49  1  0  0  0  0
 29 50  1  1  0  0  0
 29 51  1  0  0  0  0
M  END
>  <Substance ID> (278)
278

>  <Mouse_Female_Canc> (278)
1

>  <SAL> (278)
1

>  <Rat_Male_Canc> (278)
2

>  <TD50_Rat> (278)
NP

>  <TD50_Mouse> (278)
NP

>  <Rat_Female_Canc> (278)
1

>  <Canc> (278)
2

>  <MolWeight> (278)
394.42

>  <Mouse_Male_Canc> (278)
1

>  <Mouse_Male_NTP> (278)
NE

>  <ChemName> (278)
Rotenone

>  <Rat_Male_NTP> (278)
EE

>  <Reference> (278)
NTP320

>  <Formula> (278)
C23H22O6

>  <SMILES> (278)
O=C1C2=CC=C3C(=C2OC4C1C5=C(C=C(C(=C5)OC)OC)OC4)CC(O3)C(=C)C

>  <Rat_Female_NTP> (278)
NE

>  <CAS> (278)
83-79-4

>  <Mouse_Female_NTP> (278)
NE

>  <Synonyms> (278)
1,2,12,12a-tetrahydro-2alpha-isopropenyl-8,9-dimethoxy(1)benzopyrano(3,4-b)furo(2,3-h)(1)benzopyran-6(6aH)-one; 1,2,12,12a-tetrahydro-8,9-dimethoxy-2-(1-methylethenyl)-(1)benzopyrano(3,4-b)furo(2,3-h)(1)benzopyran-6(6aH)-one, (2R-(2alpha, 6alpha-12aalpha))-; [2R-(2alpha,6aalpha,12aalpha)]-1,2,12,12a-tetrahydro-8,9-dimethoxy-2-(1-methylethenyl)-[1]Benzopyrano[3,4-b]furo[2,3-h][1]benzopyran-6(6aH)-one; (2R,6a5,12axS)-1,2,12,12a-tetrahydro-2a-isopropenyl-8,9-dimethoxy(1)benzopyrano(3,4-b)furo(2,3-H)(1)benzopyran-6(6aH)-one; paraderil; barbasco; Benzopyrano[3,4-b]furo[2,3-h][1]benzopyran-6(6aH)-one, 1,2,12,12a-tetrahydro-8,9-dimethoxy-2-(1-methylethenyl)-, ([2.2.1]R-([2.2.1]alpha,6aalpha,[2.2.1][2.2.1]aalpha))-; Chem-Fish; chem-mite; Cubor; cube root; dactinol; Deril; derrin; Derris; dri-kil; extrax; fish-tox; Foliafume; green cross warble; haiari; Hydrogenated rotenone; mexide; nicouline; Noxfire; Noxfish; Nusyn; Nusyn-Noxfish; PB-Nox; Prenfish; pro-nox fish; RO-KO; ronone; Rotacide; rotefive; rotefour; (-)-rotenone; Rotenone ; Rotenone, hydrogenated; rotessenol; rotocide; Synpren; Tubatoxin; tubotoxin.

$$$$
279


 56 59  0  0  0  0  0  0  0  0999 V2000
    1.4102  -18.1173    0.1378 C   0  0  0  0  0  0  0  0  0  0  0  0
    1.4454  -19.4140    0.4351 C   0  0  0  0  0  0  0  0  0  0  0  0
    2.7229  -20.1180    0.4580 C   0  0  0  0  0  0  0  0  0  0  0  0
    2.6511  -17.3927   -0.1521 C   0  0  0  0  0  0  0  0  0  0  0  0
    3.8227  -18.0386   -0.1152 C   0  0  0  0  0  0  0  0  0  0  0  0
    3.8507  -19.4586    0.2006 C   0  0  0  0  0  0  0  0  0  0  0  0
    5.1510  -20.1808    0.1458 C   0  0  2  0  0  0  0  0  0  0  0  0
    5.1007  -17.3470   -0.3897 C   0  0  0  0  0  0  0  0  0  0  0  0
    6.3785  -18.0102   -0.0111 C   0  0  0  0  0  0  0  0  0  0  0  0
    6.3208  -19.3406    0.7085 C   0  0  1  0  0  0  0  0  0  0  0  0
    7.5691  -20.1240    0.3800 C   0  0  0  0  0  0  0  0  0  0  0  0
    7.5611  -17.4109   -0.2392 C   0  0  0  0  0  0  0  0  0  0  0  0
    8.8460  -17.9987    0.3404 C   0  0  1  0  0  0  0  0  0  0  0  0
    8.9481  -19.4924    0.7014 C   0  0  1  0  0  0  0  0  0  0  0  0
   10.0957  -20.2481   -0.1158 C   0  0  1  0  0  0  0  0  0  0  0  0
   11.4160  -19.4032    0.0712 C   0  0  0  0  0  0  0  0  0  0  0  0
   11.3990  -18.0570    0.1062 C   0  0  0  0  0  0  0  0  0  0  0  0
   10.1283  -17.3048    0.0706 C   0  0  0  0  0  0  0  0  0  0  0  0
    2.5894  -16.0348   -0.4425 O   0  0  0  0  0  0  0  0  0  0  0  0
    7.6091  -16.1894   -0.8962 O   0  0  0  0  0  0  0  0  0  0  0  0
   12.6835  -17.2868    0.1792 C   0  0  0  0  0  0  0  0  0  0  0  0
   13.9541  -17.9495    0.2198 N   0  0  0  0  0  0  0  0  0  0  0  0
   12.6526  -20.0367    0.1660 O   0  0  0  0  0  0  0  0  0  0  0  0
    5.4488  -20.3591   -1.2433 O   0  0  0  0  0  0  0  0  0  0  0  0
    5.0539  -21.5719    0.8092 C   0  0  0  0  0  0  0  0  0  0  0  0
   10.1258  -16.0835   -0.1075 O   0  0  0  0  0  0  0  0  0  0  0  0
   12.6689  -16.0515    0.1938 O   0  0  0  0  0  0  0  0  0  0  0  0
   10.3895  -21.7784    0.2444 N   0  0  0  0  0  0  0  0  0  0  0  0
    8.5164  -17.4995    1.6421 O   0  0  0  0  0  0  0  0  0  0  0  0
    5.1004  -16.1981   -0.8403 O   0  0  0  0  0  0  0  0  0  0  0  0
    9.2835  -22.7642    0.1548 C   0  0  0  0  0  0  0  0  0  0  0  0
   11.4243  -22.3652   -0.6389 C   0  0  0  0  0  0  0  0  0  0  0  0
    0.5343  -17.6356    0.1120 H   0  0  0  0  0  0  0  0  0  0  0  0
    0.5988  -19.9042    0.6422 H   0  0  0  0  0  0  0  0  0  0  0  0
    2.7516  -21.0956    0.6668 H   0  0  0  0  0  0  0  0  0  0  0  0
    6.2202  -19.1707    1.6888 H   0  0  0  0  0  0  0  0  0  0  0  0
    7.5161  -20.9870    0.8824 H   0  0  0  0  0  0  0  0  0  0  0  0
    7.5513  -20.3082   -0.6027 H   0  0  0  0  0  0  0  0  0  0  0  0
    9.1894  -19.5834    1.6676 H   0  0  0  0  0  0  0  0  0  0  0  0
    9.7628  -20.3043   -1.0571 H   0  0  0  0  0  0  0  0  0  0  0  0
    3.5113  -15.6883   -0.6158 H   0  0  0  0  0  0  0  0  0  0  0  0
    8.5603  -15.8924   -0.9796 H   0  0  0  0  0  0  0  0  0  0  0  0
   14.7966  -17.4130    0.2684 H   0  0  0  0  0  0  0  0  0  0  0  0
   13.9980  -18.9483    0.1994 H   0  0  0  0  0  0  0  0  0  0  0  0
   13.3712  -19.3508    0.2805 H   0  0  0  0  0  0  0  0  0  0  0  0
    6.3188  -20.8428   -1.3388 H   0  0  0  0  0  0  0  0  0  0  0  0
    5.9413  -22.0298    0.7558 H   0  0  0  0  0  0  0  0  0  0  0  0
    4.3667  -22.1212    0.3337 H   0  0  0  0  0  0  0  0  0  0  0  0
    4.7908  -21.4667    1.7682 H   0  0  0  0  0  0  0  0  0  0  0  0
    9.2365  -17.7516    2.2885 H   0  0  0  0  0  0  0  0  0  0  0  0
    9.6224  -23.6701    0.4089 H   0  0  0  0  0  0  0  0  0  0  0  0
    8.9346  -22.7902   -0.7820 H   0  0  0  0  0  0  0  0  0  0  0  0
    8.5475  -22.4976    0.7770 H   0  0  0  0  0  0  0  0  0  0  0  0
   11.5795  -23.3194   -0.3832 H   0  0  0  0  0  0  0  0  0  0  0  0
   12.2768  -21.8517   -0.5413 H   0  0  0  0  0  0  0  0  0  0  0  0
   11.1161  -22.3212   -1.5892 H   0  0  0  0  0  0  0  0  0  0  0  0
  1  2  2  0  0  0  0
  1  4  1  0  0  0  0
  2  3  1  0  0  0  0
  3  6  2  0  0  0  0
  5  4  2  0  0  0  0
  5  6  1  0  0  0  0
  5  8  1  0  0  0  0
  6  7  1  0  0  0  0
  7 10  1  0  0  0  0
  9  8  1  0  0  0  0
  9 10  1  0  0  0  0
  9 12  2  0  0  0  0
 10 11  1  0  0  0  0
 11 14  1  0  0  0  0
 13 12  1  0  0  0  0
 13 14  1  0  0  0  0
 13 18  1  0  0  0  0
 14 15  1  0  0  0  0
 15 16  1  0  0  0  0
 16 17  2  0  0  0  0
 17 18  1  0  0  0  0
  4 19  1  0  0  0  0
 12 20  1  0  0  0  0
 17 21  1  0  0  0  0
 21 22  1  0  0  0  0
 16 23  1  0  0  0  0
  7 24  1  0  0  0  0
  7 25  1  1  0  0  0
 18 26  2  0  0  0  0
 21 27  2  0  0  0  0
 15 28  1  1  0  0  0
 13 29  1  1  0  0  0
  8 30  2  0  0  0  0
 28 31  1  0  0  0  0
 28 32  1  0  0  0  0
  1 33  1  0  0  0  0
  2 34  1  0  0  0  0
  3 35  1  0  0  0  0
 10 36  1  0  0  0  0
 11 37  1  0  0  0  0
 11 38  1  0  0  0  0
 14 39  1  0  0  0  0
 15 40  1  0  0  0  0
 19 41  1  0  0  0  0
 20 42  1  0  0  0  0
 22 43  1  0  0  0  0
 22 44  1  0  0  0  0
 23 45  1  0  0  0  0
 24 46  1  0  0  0  0
 25 47  1  0  0  0  0
 25 48  1  0  0  0  0
 25 49  1  0  0  0  0
 29 50  1  0  0  0  0
 31 51  1  0  0  0  0
 31 52  1  0  0  0  0
 31 53  1  0  0  0  0
 32 54  1  0  0  0  0
 32 55  1  0  0  0  0
 32 56  1  0  0  0  0
M  END
>  <Substance ID> (279)
279

>  <Mouse_Female_Canc> (279)
1

>  <SAL> (279)
1

>  <Rat_Male_Canc> (279)
1

>  <TD50_Rat> (279)
NP

>  <TD50_Mouse> (279)
NP

>  <Rat_Female_Canc> (279)
1

>  <Canc> (279)
1

>  <MolWeight> (279)
479.94

>  <Mouse_Male_Canc> (279)
1

>  <Mouse_Male_NTP> (279)
NE

>  <ChemName> (279)
Tetracycline Hydrochloride

>  <Rat_Male_NTP> (279)
NE

>  <Reference> (279)
NTP344

>  <Formula> (279)
C22H24N2O8.HCl

>  <SMILES> (279)
O=C(N)/C1=C(\O)[C@@H](N(C)C)C2CC4C(=C(\O)[C@]2(O)C1=O)\C(=O)c3c(cccc3O)[C@]4(O)C.Cl

>  <Rat_Female_NTP> (279)
NE

>  <CAS> (279)
64-75-5

>  <Mouse_Female_NTP> (279)
NE

>  <Synonyms> (279)
2-Naphthacenecarboxamide, 4-(dimethylamino)-1,4,4a,5,5a,6,11,12a-octahydro-3,6,10,12,12a-pentahydroxy-6-methyl-1,11-dioxo-, monohydrochloride, [4S-(4alpha,4aalpha,5aalpha,6beta,12aalpha)]-; 4-(dimethylamino)-1,4,4a,5,5a,6,11,12a-octahydro-3,6,10,12,12a-pentahydroxy-6-methyl-1,11-dioxo-2-naphthacenecarboxamide, mono-hydrochloride; Abricycline; Achro; achromycin; achromycin hydrochloride; Agromicina; Ala Tet; Ambracyn; Ambramicina; Ambramycin; Artomycin; artromycin; Diacycline; Bio-Tetra; Bristaciclina; cancycline-250; Cefracycline; Criseociclina; Cyclomycin; Cyclopar; deschlorobiomycin; Democracin; Dumocyclin; fermentmycin; Helvecyclin; Hostacyclin; Imex; Mephacyclin; Naphthacenecarboxamide, 4-(dimethylamino)-1,4,4a,5,5a,6,11,12a-octahydro-3,6,10,12,12a-pentahydroxy-6-methyl-1,11-dioxo-, monohydrachloride, (4S-(4alpha,4aalpha,5aalpha,6beta,12aalpha)); paltet; Partrex; Polycycline; polycycline hydrochloride; Purocyclina; Quadracycline; Quatrex; Remicyclin; Ricycline; Ro-cycline; Sanclomycine; Steclin; steclin hydrochloride; Stilciclina; Subamycin; Supramycine; Sustamycin; Tefilin; Teline; Telotrex; Tet-cy; Tetrabakat; Tetrabid; Tetrablet; Tetrabon; tetracaps; Tetrachel; Tetracompren; tetracycline chloride; Tetracycline hydrochloride, [can be used as secondary standard]; Tetra-D; Tetradecin; Tetrakap; Tetralution; Tetramavan; Tetramycin; Tetra-Wedel; Tetrosol; Topicycline; Totomycin; Triphacyclin; Tsiklomitsin; U-5965; Unicin; Unimycin; Vetquamycin-324; Omegamycin.

$$$$
280


  5  4  0  0  0  0  0  0  0  0999 V2000
    4.1033  -28.6039    0.4847 C   0  0  0  0  0  0  0  0  0  0  0  0
    5.0242  -27.0273   -0.1710 Br  0  0  0  0  0  0  0  0  0  0  0  0
    5.0179  -30.1957   -0.1423 Br  0  0  0  0  0  0  0  0  0  0  0  0
    2.2770  -28.6062   -0.1699 Br  0  0  0  0  0  0  0  0  0  0  0  0
    4.0984  -28.5948    1.4846 H   0  0  0  0  0  0  0  0  0  0  0  0
  1  2  1  0  0  0  0
  1  3  1  0  0  0  0
  1  4  1  0  0  0  0
  1  5  1  0  0  0  0
M  END
>  <Substance ID> (280)
280

>  <Mouse_Female_Canc> (280)
1

>  <SAL> (280)
2

>  <Rat_Male_Canc> (280)
3

>  <TD50_Rat> (280)
648

>  <TD50_Mouse> (280)
NP

>  <Rat_Female_Canc> (280)
3

>  <Canc> (280)
3

>  <MolWeight> (280)
252.73

>  <Mouse_Male_Canc> (280)
1

>  <Mouse_Male_NTP> (280)
NE

>  <ChemName> (280)
Tribromomethane

>  <Rat_Male_NTP> (280)
SE

>  <Reference> (280)
NTP350

>  <Formula> (280)
CHBr3

>  <SMILES> (280)
C(Br)(Br)Br

>  <Rat_Female_NTP> (280)
CE

>  <CAS> (280)
75-25-2

>  <Mouse_Female_NTP> (280)
NE

>  <Synonyms> (280)
Bromoform; methenyl tribromide; Methyl Tribromide.

$$$$
281


 14 15  0  0  0  0  0  0  0  0999 V2000
    4.3681  -36.0965   -0.0015 N   0  0  0  0  0  0  0  0  0  0  0  0
    4.3909  -37.5401   -0.0012 C   0  0  0  0  0  0  0  0  0  0  0  0
    5.4948  -38.1913    0.0008 N   0  0  0  0  0  0  0  0  0  0  0  0
    6.6713  -37.4679    0.0009 C   0  0  0  0  0  0  0  0  0  0  0  0
    6.6801  -36.1690    0.0000 C   0  0  0  0  0  0  0  0  0  0  0  0
    5.4559  -35.4289   -0.0003 C   0  0  0  0  0  0  0  0  0  0  0  0
    7.9845  -35.6995   -0.0008 N   0  0  0  0  0  0  0  0  0  0  0  0
    8.7582  -36.7279   -0.0006 C   0  0  0  0  0  0  0  0  0  0  0  0
    7.9626  -37.9181    0.0010 N   0  0  0  0  0  0  0  0  0  0  0  0
    5.4497  -33.6579    0.0012 S   0  0  0  0  0  0  0  0  0  0  0  0
    3.5265  -38.0429   -0.0025 H   0  0  0  0  0  0  0  0  0  0  0  0
    9.7578  -36.7000   -0.0015 H   0  0  0  0  0  0  0  0  0  0  0  0
    8.2801  -38.8664    0.0020 H   0  0  0  0  0  0  0  0  0  0  0  0
    6.3911  -33.3207    0.0020 H   0  0  0  0  0  0  0  0  0  0  0  0
  1  6  2  0  0  0  0
  1  2  1  0  0  0  0
  2  3  2  0  0  0  0
  3  4  1  0  0  0  0
  4  5  2  0  0  0  0
  5  6  1  0  0  0  0
  5  7  1  0  0  0  0
  7  8  2  0  0  0  0
  4  9  1  0  0  0  0
  9  8  1  0  0  0  0
  6 10  1  0  0  0  0
  2 11  1  0  0  0  0
  8 12  1  0  0  0  0
  9 13  1  0  0  0  0
 10 14  1  0  0  0  0
M  END
>  <Substance ID> (281)
281

>  <Mouse_Female_Canc> (281)
ND

>  <SAL> (281)
3

>  <Rat_Male_Canc> (281)
1

>  <TD50_Rat> (281)
NP

>  <TD50_Mouse> (281)
ND

>  <Rat_Female_Canc> (281)
1

>  <Canc> (281)
1

>  <MolWeight> (281)
152.17

>  <Mouse_Male_Canc> (281)
ND

>  <Mouse_Male_NTP> (281)
ND

>  <ChemName> (281)
6-Mercaptopurine

>  <Rat_Male_NTP> (281)
ND

>  <Reference> (281)
CPDB

>  <Formula> (281)
C5H4N4S

>  <SMILES> (281)
SC1=NC=NC2=C1NC=N2

>  <Rat_Female_NTP> (281)
ND

>  <CAS> (281)
50-44-2

>  <Mouse_Female_NTP> (281)
ND

>  <Synonyms> (281)
1,7-dihydro-6H-purine-6-thione; 3H-Purine-6-thiol; 6 MP; 6-Purinethiol; 6-Thioxopurine; 7-Mercapto-1,3,4,6-tetrazaindene; Hypoxanthine, thio-; Ismipur; Leukeran; Leukerin; Leukerin, 99% - Carc.; Leupurin; Mercaleukim; Mercaleukin; Mercaptopurine; Mercapurin; Mern; Purimethol; Purine-6-thiol; Purinethiol; Puri-Nethol; U-4748.

$$$$
282


 10  9  0  0  0  0  0  0  0  0999 V2000
    2.0704  -42.6215    0.0004 C   0  0  0  0  0  0  0  0  0  0  0  0
    4.4909  -42.6784   -0.0002 C   0  0  0  0  0  0  0  0  0  0  0  0
    3.2209  -41.9518   -0.0006 C   0  0  0  0  0  0  0  0  0  0  0  0
    4.4957  -43.9146    0.0006 O   0  0  0  0  0  0  0  0  0  0  0  0
    5.6976  -41.9754   -0.0007 N   0  0  0  0  0  0  0  0  0  0  0  0
    1.2026  -42.1246    0.0001 H   0  0  0  0  0  0  0  0  0  0  0  0
    2.0739  -43.6215    0.0015 H   0  0  0  0  0  0  0  0  0  0  0  0
    3.2172  -40.9518   -0.0017 H   0  0  0  0  0  0  0  0  0  0  0  0
    6.5656  -42.4719   -0.0004 H   0  0  0  0  0  0  0  0  0  0  0  0
    5.6937  -40.9754   -0.0014 H   0  0  0  0  0  0  0  0  0  0  0  0
  2  3  1  0  0  0  0
  3  1  2  0  0  0  0
  2  4  2  0  0  0  0
  2  5  1  0  0  0  0
  1  6  1  0  0  0  0
  1  7  1  0  0  0  0
  3  8  1  0  0  0  0
  5  9  1  0  0  0  0
  5 10  1  0  0  0  0
M  END
>  <Substance ID> (282)
282

>  <Mouse_Female_Canc> (282)
ND

>  <SAL> (282)
1

>  <Rat_Male_Canc> (282)
3

>  <TD50_Rat> (282)
3.81

>  <TD50_Mouse> (282)
ND

>  <Rat_Female_Canc> (282)
3

>  <Canc> (282)
3

>  <MolWeight> (282)
71.08

>  <Mouse_Male_Canc> (282)
ND

>  <Mouse_Male_NTP> (282)
ND

>  <ChemName> (282)
Acrylamide 

>  <Rat_Male_NTP> (282)
ND

>  <Reference> (282)
CPDB

>  <Formula> (282)
C3H5NO

>  <SMILES> (282)
NC(=O)C=C

>  <Rat_Female_NTP> (282)
ND

>  <CAS> (282)
79-06-1

>  <Mouse_Female_NTP> (282)
ND

>  <Synonyms> (282)
2-Propenamide; 2-Propeneamide; Acrylic amide; Ethylene carboxamide; Ethylenecarboxamide; propenamide; propenoic acid, amide; vinyl amide.

$$$$
283


 15 14  0  0  0  0  0  0  0  0999 V2000
    4.5299  -35.9501   -0.0005 N   0  0  0  0  0  0  0  0  0  0  0  0
    5.6962  -35.2210   -0.0000 N   0  0  0  0  0  0  0  0  0  0  0  0
    6.9857  -35.9242   -0.0006 C   0  0  0  0  0  0  0  0  0  0  0  0
    5.6788  -33.7802    0.0008 C   0  0  0  0  0  0  0  0  0  0  0  0
    3.4804  -35.4208   -0.0002 O   0  0  0  0  0  0  0  0  0  0  0  0
    4.6099  -33.1592    0.0012 O   0  0  0  0  0  0  0  0  0  0  0  0
    6.8850  -33.0771    0.0012 N   0  0  0  0  0  0  0  0  0  0  0  0
    6.7412  -37.4436   -0.0007 C   0  0  0  0  0  0  0  0  0  0  0  0
    7.5036  -35.6699   -0.8173 H   0  0  0  0  0  0  0  0  0  0  0  0
    7.5042  -35.6702    0.8159 H   0  0  0  0  0  0  0  0  0  0  0  0
    6.8808  -32.0771    0.0018 H   0  0  0  0  0  0  0  0  0  0  0  0
    7.7531  -33.5735    0.0009 H   0  0  0  0  0  0  0  0  0  0  0  0
    7.6188  -37.9229   -0.0011 H   0  0  0  0  0  0  0  0  0  0  0  0
    6.2226  -37.6982   -0.8170 H   0  0  0  0  0  0  0  0  0  0  0  0
    6.2231  -37.6984    0.8158 H   0  0  0  0  0  0  0  0  0  0  0  0
  1  2  1  0  0  0  0
  2  3  1  0  0  0  0
  2  4  1  0  0  0  0
  1  5  2  0  0  0  0
  4  6  2  0  0  0  0
  4  7  1  0  0  0  0
  3  8  1  0  0  0  0
  3  9  1  0  0  0  0
  3 10  1  0  0  0  0
  7 11  1  0  0  0  0
  7 12  1  0  0  0  0
  8 13  1  0  0  0  0
  8 14  1  0  0  0  0
  8 15  1  0  0  0  0
M  END
>  <Substance ID> (283)
283

>  <Mouse_Female_Canc> (283)
ND

>  <SAL> (283)
3

>  <Rat_Male_Canc> (283)
3

>  <TD50_Rat> (283)
0.948

>  <TD50_Mouse> (283)
ND

>  <Rat_Female_Canc> (283)
3

>  <Canc> (283)
3

>  <MolWeight> (283)
117.11

>  <Mouse_Male_Canc> (283)
ND

>  <Mouse_Male_NTP> (283)
ND

>  <ChemName> (283)
1-Ethyl-1-Nitrosourea

>  <Rat_Male_NTP> (283)
ND

>  <Reference> (283)
CPDB

>  <Formula> (283)
C3H7N3O2

>  <SMILES> (283)
NC(=O)N(CC)N=O

>  <Rat_Female_NTP> (283)
ND

>  <CAS> (283)
759-73-9

>  <Mouse_Female_NTP> (283)
ND

>  <Synonyms> (283)
1-Ethyl-1-Nitrosourea, Stabilized With Dilute Acetic Acid Soln. - Carc.; ENU; Ethylnitrosourea; N-ethylnitrosourea; N-ethyl-N-nitrosocarbamide; N-Ethyl-N-Nitroso-Urea; NEU; nitrosoethylurea; N-Nitroso-N-Ethylurea.

$$$$
284


 68 72  0  0  0  0  0  0  0  0999 V2000
    2.2179  -37.5817   -0.0292 C   0  0  0  0  0  0  0  0  0  0  0  0
    2.1366  -38.9094   -0.0543 C   0  0  0  0  0  0  0  0  0  0  0  0
    3.3596  -39.7229   -0.0540 C   0  0  0  0  0  0  0  0  0  0  0  0
    3.5256  -36.9375   -0.0031 C   0  0  0  0  0  0  0  0  0  0  0  0
    3.2713  -41.1217   -0.0761 O   0  0  0  0  0  0  0  0  0  0  0  0
    1.9131  -41.5682   -0.0947 C   0  0  0  0  0  0  0  0  0  0  0  0
    4.6306  -37.6783   -0.0028 C   0  0  0  0  0  0  0  0  0  0  0  0
    4.5525  -39.1181   -0.0282 C   0  0  0  0  0  0  0  0  0  0  0  0
    5.7999  -39.8799   -0.0186 C   0  0  0  0  0  0  0  0  0  0  0  0
    5.9226  -37.0454    0.0250 C   0  0  0  0  0  0  0  0  0  0  0  0
    7.1554  -37.8514    0.0586 C   0  0  0  0  0  0  0  0  0  0  0  0
    7.0931  -39.1829    0.0446 C   0  0  0  0  0  0  0  0  0  0  0  0
    8.3180  -39.9699    0.1111 C   0  0  0  0  0  0  0  0  0  0  0  0
    8.4629  -37.1931    0.1076 C   0  0  0  0  0  0  0  0  0  0  0  0
    9.5786  -37.9106    0.1470 C   0  0  0  0  0  0  0  0  0  0  0  0
    9.5119  -39.3797    0.1752 C   0  0  0  0  0  0  0  0  0  0  0  0
   10.7778  -40.2356    0.2899 C   0  0  2  0  0  0  0  0  0  0  0  0
   12.0360  -39.3486    0.6529 C   0  0  0  0  0  0  0  0  0  0  0  0
   12.0608  -38.0681   -0.2151 C   0  0  1  0  0  0  0  0  0  0  0  0
   10.8770  -37.1844    0.1847 C   0  0  0  0  0  0  0  0  0  0  0  0
    5.9866  -35.8115    0.0447 O   0  0  0  0  0  0  0  0  0  0  0  0
    5.7711  -41.1123   -0.0553 O   0  0  0  0  0  0  0  0  0  0  0  0
    8.5534  -35.8104    0.1072 O   0  0  0  0  0  0  0  0  0  0  0  0
    8.2263  -41.3333    0.1315 O   0  0  0  0  0  0  0  0  0  0  0  0
   13.3025  -37.2511    0.0174 C   0  0  0  0  0  0  0  0  0  0  0  0
   11.9979  -38.4426   -1.5953 O   0  0  0  0  0  0  0  0  0  0  0  0
   14.6616  -37.8671   -0.0343 C   0  0  0  0  0  0  0  0  0  0  0  0
   13.1945  -36.0434    0.2633 O   0  0  0  0  0  0  0  0  0  0  0  0
   15.6325  -36.8554    0.2695 O   0  0  0  0  0  0  0  0  0  0  0  0
   10.9128  -40.9827   -0.9570 O   0  0  0  0  0  0  0  0  0  0  0  0
   11.0967  -42.4637   -0.7468 C   0  0  2  0  0  0  0  0  0  0  0  0
    9.9716  -42.9979    0.0120 O   0  0  0  0  0  0  0  0  0  0  0  0
   10.0095  -44.4496    0.3089 C   0  0  2  0  0  0  0  0  0  0  0  0
   11.2554  -45.1652   -0.2855 C   0  0  2  0  0  0  0  0  0  0  0  0
   12.4737  -44.4175    0.3048 C   0  0  2  0  0  0  0  0  0  0  0  0
   12.4483  -42.8717   -0.0607 C   0  0  0  0  0  0  0  0  0  0  0  0
    8.7244  -45.1242   -0.2098 C   0  0  0  0  0  0  0  0  0  0  0  0
   11.2563  -45.1305   -1.7214 O   0  0  0  0  0  0  0  0  0  0  0  0
   13.7330  -45.0247   -0.1535 N   0  0  0  0  0  0  0  0  0  0  0  0
    1.3854  -37.0277   -0.0284 H   0  0  0  0  0  0  0  0  0  0  0  0
    1.2412  -39.3543   -0.0734 H   0  0  0  0  0  0  0  0  0  0  0  0
    3.5918  -35.9398    0.0147 H   0  0  0  0  0  0  0  0  0  0  0  0
    1.8905  -42.5678   -0.1102 H   0  0  0  0  0  0  0  0  0  0  0  0
    1.4559  -41.2123   -0.9098 H   0  0  0  0  0  0  0  0  0  0  0  0
    1.4417  -41.2372    0.7227 H   0  0  0  0  0  0  0  0  0  0  0  0
   10.7112  -40.8899    1.0431 H   0  0  0  0  0  0  0  0  0  0  0  0
   11.9904  -39.0915    1.6182 H   0  0  0  0  0  0  0  0  0  0  0  0
   12.8695  -39.8755    0.4868 H   0  0  0  0  0  0  0  0  0  0  0  0
   10.8286  -36.4101   -0.4464 H   0  0  0  0  0  0  0  0  0  0  0  0
   11.0285  -36.8484    1.1142 H   0  0  0  0  0  0  0  0  0  0  0  0
    7.6352  -35.4158    0.0753 H   0  0  0  0  0  0  0  0  0  0  0  0
    9.1436  -41.7288    0.1778 H   0  0  0  0  0  0  0  0  0  0  0  0
   12.0134  -37.6210   -2.1651 H   0  0  0  0  0  0  0  0  0  0  0  0
   14.7228  -38.6055    0.6372 H   0  0  0  0  0  0  0  0  0  0  0  0
   14.8312  -38.2331   -0.9494 H   0  0  0  0  0  0  0  0  0  0  0  0
   16.5495  -37.2529    0.2388 H   0  0  0  0  0  0  0  0  0  0  0  0
   11.1330  -42.8630   -1.6629 H   0  0  0  0  0  0  0  0  0  0  0  0
   10.0723  -44.5376    1.3030 H   0  0  0  0  0  0  0  0  0  0  0  0
   11.2684  -46.1367   -0.0488 H   0  0  0  0  0  0  0  0  0  0  0  0
   12.4175  -44.5003    1.2998 H   0  0  0  0  0  0  0  0  0  0  0  0
   13.2027  -42.6736   -0.6865 H   0  0  0  0  0  0  0  0  0  0  0  0
   12.5609  -42.3380    0.7774 H   0  0  0  0  0  0  0  0  0  0  0  0
    8.7558  -46.1028   -0.0067 H   0  0  0  0  0  0  0  0  0  0  0  0
    8.6535  -44.9916   -1.1985 H   0  0  0  0  0  0  0  0  0  0  0  0
    7.9290  -44.7165    0.2387 H   0  0  0  0  0  0  0  0  0  0  0  0
   12.0698  -45.5988   -2.0661 H   0  0  0  0  0  0  0  0  0  0  0  0
   14.5061  -44.5267    0.2392 H   0  0  0  0  0  0  0  0  0  0  0  0
   13.7811  -44.9806   -1.1514 H   0  0  0  0  0  0  0  0  0  0  0  0
  1  2  2  0  0  0  0
  2  3  1  0  0  0  0
  3  8  2  0  0  0  0
  7  4  2  0  0  0  0
  4  1  1  0  0  0  0
  3  5  1  0  0  0  0
  5  6  1  0  0  0  0
  7  8  1  0  0  0  0
  7 10  1  0  0  0  0
  8  9  1  0  0  0  0
  9 12  1  0  0  0  0
 11 10  1  0  0  0  0
 11 12  2  0  0  0  0
 12 13  1  0  0  0  0
 13 16  2  0  0  0  0
 15 14  2  0  0  0  0
 14 11  1  0  0  0  0
 15 16  1  0  0  0  0
 15 20  1  0  0  0  0
 16 17  1  0  0  0  0
 17 18  1  0  0  0  0
 18 19  1  0  0  0  0
 19 20  1  0  0  0  0
 10 21  2  0  0  0  0
  9 22  2  0  0  0  0
 14 23  1  0  0  0  0
 13 24  1  0  0  0  0
 19 25  1  1  0  0  0
 19 26  1  6  0  0  0
 25 27  1  0  0  0  0
 25 28  2  0  0  0  0
 27 29  1  0  0  0  0
 17 30  1  6  0  0  0
 31 30  1  1  0  0  0
 31 32  1  0  0  0  0
 31 36  1  0  0  0  0
 32 33  1  0  0  0  0
 33 34  1  0  0  0  0
 34 35  1  0  0  0  0
 35 36  1  0  0  0  0
 33 37  1  6  0  0  0
 34 38  1  6  0  0  0
 35 39  1  6  0  0  0
  1 40  1  0  0  0  0
  2 41  1  0  0  0  0
  4 42  1  0  0  0  0
  6 43  1  0  0  0  0
  6 44  1  0  0  0  0
  6 45  1  0  0  0  0
 17 46  1  0  0  0  0
 18 47  1  0  0  0  0
 18 48  1  0  0  0  0
 20 49  1  0  0  0  0
 20 50  1  0  0  0  0
 23 51  1  0  0  0  0
 24 52  1  0  0  0  0
 26 53  1  0  0  0  0
 27 54  1  0  0  0  0
 27 55  1  0  0  0  0
 29 56  1  0  0  0  0
 31 57  1  0  0  0  0
 33 58  1  0  0  0  0
 34 59  1  0  0  0  0
 35 60  1  0  0  0  0
 36 61  1  0  0  0  0
 36 62  1  0  0  0  0
 37 63  1  0  0  0  0
 37 64  1  0  0  0  0
 37 65  1  0  0  0  0
 38 66  1  0  0  0  0
 39 67  1  0  0  0  0
 39 68  1  0  0  0  0
M  END
>  <Substance ID> (284)
284

>  <Mouse_Female_Canc> (284)
ND

>  <SAL> (284)
3

>  <Rat_Male_Canc> (284)
3

>  <TD50_Rat> (284)
ND

>  <TD50_Mouse> (284)
ND

>  <Rat_Female_Canc> (284)
3

>  <Canc> (284)
3

>  <MolWeight> (284)
543.53

>  <Mouse_Male_Canc> (284)
ND

>  <Mouse_Male_NTP> (284)
ND

>  <ChemName> (284)
Adriamycin

>  <Rat_Male_NTP> (284)
ND

>  <Reference> (284)
Toxnet

>  <Formula> (284)
C27H29NO11 

>  <SMILES> (284)
O=C2c1c(O)c5c(c(O)c1C(=O)c3cccc(OC)c23)C[C@@](O)(C(=O)CO)C[C@@H]5O[C@@H]4O[C@H]([C@@H](O)[C@@H](N)C4)C

>  <Rat_Female_NTP> (284)
ND

>  <CAS> (284)
23214-92-8

>  <Mouse_Female_NTP> (284)
ND

>  <Synonyms> (284)
10-((3-Amino-2,3,6-trideoxy-alpha-L-lyso-hexopyranosyl)oxy)-7,8,9,10-tetrahydro-6,8,11-trihydroxy-8-(hydroxyacetyl)-1-methoxy-5,12-naphthacenedione; 14-Hydroxydaunomycin; (8S-cis)-10-(3-Amino-2,3,6-Trideoxy-alpha-L-Lyxo-Hexopyranosyl)Oxy-7,8,9,10-Tetrahydro-6,8,11-Trihydroxy-8-(Hydroxyacetyl)-1-Methoxy-5,12-Naphthacenedione; adiblastine (hydrochloride salt); adriablastine (hydrochloride salt); adriablatina (hydrochloride salt); Adriacin; Adriacin (hydrochloride salt); Adriamycin PFS; Adriamycin PFS (hydrochloride salt); Adriamycin RDF; Adriamycin RDF (hydrochloride salt); Adriblastin; Adriblastina; Adriblastina (hydrochloride salt); adriblatina (hydrochloride salt); Doxorubicin; Doxorubicin hydrochloride (hydrochloride salt); Farmablastina (hydrochloride salt); Hydroxydaunomycin hydrochloride (hydrochloride salt); Hydroxydaunorubicin hydrochloride (hydrochloride salt); Rubex; Rubex (hydrochloride salt).

$$$$
285


 19 18  0  0  0  0  0  0  0  0999 V2000
    6.0146  -74.9953    0.0341 S   0  0  0  0  0  0  0  0  0  0  0  0
    5.1804  -73.8262    0.9695 O   0  0  0  0  0  0  0  0  0  0  0  0
    4.9674  -75.9282   -0.9552 O   0  0  0  0  0  0  0  0  0  0  0  0
    7.0168  -74.2666   -0.8450 O   0  0  0  0  0  0  0  0  0  0  0  0
    6.7594  -75.9377    0.9546 O   0  0  0  0  0  0  0  0  0  0  0  0
    4.8077  -72.6724    0.1761 C   0  0  0  0  0  0  0  0  0  0  0  0
    4.2249  -76.9043   -0.1810 C   0  0  0  0  0  0  0  0  0  0  0  0
    3.8733  -73.0442   -0.9888 C   0  0  0  0  0  0  0  0  0  0  0  0
    3.2778  -76.2418    0.8356 C   0  0  0  0  0  0  0  0  0  0  0  0
    4.3404  -72.0137    0.7659 H   0  0  0  0  0  0  0  0  0  0  0  0
    5.6373  -72.2567   -0.1968 H   0  0  0  0  0  0  0  0  0  0  0  0
    3.6836  -77.4666   -0.8062 H   0  0  0  0  0  0  0  0  0  0  0  0
    4.8730  -77.4838    0.3130 H   0  0  0  0  0  0  0  0  0  0  0  0
    3.6426  -72.2210   -1.5075 H   0  0  0  0  0  0  0  0  0  0  0  0
    3.0364  -73.4554   -0.6274 H   0  0  0  0  0  0  0  0  0  0  0  0
    4.3329  -73.6983   -1.5897 H   0  0  0  0  0  0  0  0  0  0  0  0
    2.7879  -76.9489    1.3454 H   0  0  0  0  0  0  0  0  0  0  0  0
    2.6202  -75.6642    0.3520 H   0  0  0  0  0  0  0  0  0  0  0  0
    3.8092  -75.6814    1.4709 H   0  0  0  0  0  0  0  0  0  0  0  0
  1  2  1  0  0  0  0
  1  3  1  0  0  0  0
  1  4  2  0  0  0  0
  1  5  2  0  0  0  0
  2  6  1  0  0  0  0
  3  7  1  0  0  0  0
  6  8  1  0  0  0  0
  7  9  1  0  0  0  0
  6 10  1  0  0  0  0
  6 11  1  0  0  0  0
  7 12  1  0  0  0  0
  7 13  1  0  0  0  0
  8 14  1  0  0  0  0
  8 15  1  0  0  0  0
  8 16  1  0  0  0  0
  9 17  1  0  0  0  0
  9 18  1  0  0  0  0
  9 19  1  0  0  0  0
M  END
>  <Substance ID> (285)
285

>  <Mouse_Female_Canc> (285)
ND

>  <SAL> (285)
3

>  <Rat_Male_Canc> (285)
3

>  <TD50_Rat> (285)
ND

>  <TD50_Mouse> (285)
ND

>  <Rat_Female_Canc> (285)
3

>  <Canc> (285)
3

>  <MolWeight> (285)
154.18

>  <Mouse_Male_Canc> (285)
ND

>  <Mouse_Male_NTP> (285)
ND

>  <ChemName> (285)
Diethyl Sulfate 

>  <Rat_Male_NTP> (285)
ND

>  <Reference> (285)
Toxnet

>  <Formula> (285)
C4H10O4S 

>  <SMILES> (285)
O=S(=O)(OCC)OCC

>  <Rat_Female_NTP> (285)
ND

>  <CAS> (285)
64-67-5

>  <Mouse_Female_NTP> (285)
ND

>  <Synonyms> (285)
Diethyl Monosulfate; DS; ethyl sulfate; sulfuric acid, diethyl ester.

$$$$
286


 15 14  0  0  0  0  0  0  0  0999 V2000
    6.4016  -90.8984    0.5511 S   0  0  0  0  0  0  0  0  0  0  0  0
    4.7194  -90.7822   -0.1056 C   0  0  0  0  0  0  0  0  0  0  0  0
    7.9022  -91.2078   -0.1836 O   0  0  0  0  0  0  0  0  0  0  0  0
    6.5475  -89.5766   -0.1792 O   0  0  0  0  0  0  0  0  0  0  0  0
    6.1867  -92.3010    0.0156 O   0  0  0  0  0  0  0  0  0  0  0  0
    8.8710  -90.2686    0.2855 C   0  0  0  0  0  0  0  0  0  0  0  0
   10.2225  -90.5572   -0.3860 C   0  0  0  0  0  0  0  0  0  0  0  0
    4.0831  -90.5834    0.6398 H   0  0  0  0  0  0  0  0  0  0  0  0
    4.4682  -91.6495   -0.5353 H   0  0  0  0  0  0  0  0  0  0  0  0
    4.6760  -90.0493   -0.7846 H   0  0  0  0  0  0  0  0  0  0  0  0
    8.5755  -89.3411    0.0566 H   0  0  0  0  0  0  0  0  0  0  0  0
    8.9658  -90.3535    1.2774 H   0  0  0  0  0  0  0  0  0  0  0  0
   10.9038  -89.9017   -0.0602 H   0  0  0  0  0  0  0  0  0  0  0  0
   10.1272  -90.4730   -1.3779 H   0  0  0  0  0  0  0  0  0  0  0  0
   10.5174  -91.4850   -0.1574 H   0  0  0  0  0  0  0  0  0  0  0  0
  1  2  1  0  0  0  0
  1  3  1  0  0  0  0
  1  4  2  0  0  0  0
  1  5  2  0  0  0  0
  3  6  1  0  0  0  0
  6  7  1  0  0  0  0
  2  8  1  0  0  0  0
  2  9  1  0  0  0  0
  2 10  1  0  0  0  0
  6 11  1  0  0  0  0
  6 12  1  0  0  0  0
  7 13  1  0  0  0  0
  7 14  1  0  0  0  0
  7 15  1  0  0  0  0
M  END
>  <Substance ID> (286)
286

>  <Mouse_Female_Canc> (286)
3

>  <SAL> (286)
3

>  <Rat_Male_Canc> (286)
3

>  <TD50_Rat> (286)
ND

>  <TD50_Mouse> (286)
ND

>  <Rat_Female_Canc> (286)
3

>  <Canc> (286)
3

>  <MolWeight> (286)
124.16

>  <Mouse_Male_Canc> (286)
3

>  <Mouse_Male_NTP> (286)
ND

>  <ChemName> (286)
Ethyl Methanesulfonate

>  <Rat_Male_NTP> (286)
ND

>  <Reference> (286)
Toxnet

>  <Formula> (286)
C3H8O3S

>  <SMILES> (286)
O=S(=O)(OCC)C

>  <Rat_Female_NTP> (286)
ND

>  <CAS> (286)
62-50-0

>  <Mouse_Female_NTP> (286)
ND

>  <Synonyms> (286)
EMS; ethyl ester of methanesulfonic acid; ethyl ester of methylsulfonic acid; Ethyl mesylate; half-myleran; Methanesulfonic acid ethyl ester; methylsulfonic acid, ethyl ester.

$$$$
287


 18 17  0  0  0  0  0  0  0  0999 V2000
   28.4301   -2.7773    0.4497 S   0  0  0  0  0  0  0  0  0  0  0  0
   26.6812   -2.9606    0.0227 C   0  0  0  0  0  0  0  0  0  0  0  0
   29.8770   -3.0838   -0.4060 O   0  0  0  0  0  0  0  0  0  0  0  0
   28.3157   -4.2617    0.1812 O   0  0  0  0  0  0  0  0  0  0  0  0
   28.3031   -1.5964   -0.4996 O   0  0  0  0  0  0  0  0  0  0  0  0
   31.0306   -2.5715    0.2980 C   0  0  0  0  0  0  0  0  0  0  0  0
   30.9921   -1.0319    0.4094 C   0  0  0  0  0  0  0  0  0  0  0  0
   32.3037   -2.9842   -0.4556 C   0  0  0  0  0  0  0  0  0  0  0  0
   26.1168   -2.6741    0.7969 H   0  0  0  0  0  0  0  0  0  0  0  0
   26.4889   -3.9179   -0.1932 H   0  0  0  0  0  0  0  0  0  0  0  0
   26.4701   -2.3912   -0.7718 H   0  0  0  0  0  0  0  0  0  0  0  0
   31.0246   -2.9531    1.2223 H   0  0  0  0  0  0  0  0  0  0  0  0
   31.8024   -0.7124    0.9005 H   0  0  0  0  0  0  0  0  0  0  0  0
   30.1703   -0.7537    0.9068 H   0  0  0  0  0  0  0  0  0  0  0  0
   30.9785   -0.6311   -0.5067 H   0  0  0  0  0  0  0  0  0  0  0  0
   33.1059   -2.6325    0.0268 H   0  0  0  0  0  0  0  0  0  0  0  0
   32.2805   -2.6073   -1.3816 H   0  0  0  0  0  0  0  0  0  0  0  0
   32.3548   -3.9818   -0.5033 H   0  0  0  0  0  0  0  0  0  0  0  0
  1  2  1  0  0  0  0
  1  3  1  0  0  0  0
  1  4  2  0  0  0  0
  1  5  2  0  0  0  0
  3  6  1  0  0  0  0
  6  7  1  0  0  0  0
  6  8  1  0  0  0  0
  2  9  1  0  0  0  0
  2 10  1  0  0  0  0
  2 11  1  0  0  0  0
  6 12  1  0  0  0  0
  7 13  1  0  0  0  0
  7 14  1  0  0  0  0
  7 15  1  0  0  0  0
  8 16  1  0  0  0  0
  8 17  1  0  0  0  0
  8 18  1  0  0  0  0
M  END
>  <Substance ID> (287)
287

>  <Mouse_Female_Canc> (287)
3

>  <SAL> (287)
3

>  <Rat_Male_Canc> (287)
ND

>  <TD50_Rat> (287)
ND

>  <TD50_Mouse> (287)
ND

>  <Rat_Female_Canc> (287)
ND

>  <Canc> (287)
3

>  <MolWeight> (287)
138.18

>  <Mouse_Male_Canc> (287)
ND

>  <Mouse_Male_NTP> (287)
ND

>  <ChemName> (287)
Isopropyl methanesulfonate

>  <Rat_Male_NTP> (287)
ND

>  <Reference> (287)
Toxnet

>  <Formula> (287)
C4H10O3S 

>  <SMILES> (287)
O=S(=O)(OC(C)C)C

>  <Rat_Female_NTP> (287)
ND

>  <CAS> (287)
926-06-7

>  <Mouse_Female_NTP> (287)
ND

>  <Synonyms> (287)
-

$$$$
288


 12 11  0  0  0  0  0  0  0  0999 V2000
   35.9380   -6.7468    0.5086 S   0  0  0  0  0  0  0  0  0  0  0  0
   34.1795   -6.5544    0.1268 C   0  0  0  0  0  0  0  0  0  0  0  0
   37.3181   -6.9740   -0.4605 O   0  0  0  0  0  0  0  0  0  0  0  0
   36.0097   -5.3333   -0.0433 O   0  0  0  0  0  0  0  0  0  0  0  0
   35.6140   -8.0526   -0.1876 O   0  0  0  0  0  0  0  0  0  0  0  0
   38.4043   -6.2001    0.0564 C   0  0  0  0  0  0  0  0  0  0  0  0
   33.6640   -6.4403    0.9760 H   0  0  0  0  0  0  0  0  0  0  0  0
   33.8516   -7.3671   -0.3550 H   0  0  0  0  0  0  0  0  0  0  0  0
   34.0498   -5.7492   -0.4520 H   0  0  0  0  0  0  0  0  0  0  0  0
   39.2131   -6.3363   -0.5156 H   0  0  0  0  0  0  0  0  0  0  0  0
   38.6056   -6.4905    0.9919 H   0  0  0  0  0  0  0  0  0  0  0  0
   38.1547   -5.2317    0.0548 H   0  0  0  0  0  0  0  0  0  0  0  0
  1  2  1  0  0  0  0
  1  3  1  0  0  0  0
  1  4  2  0  0  0  0
  1  5  2  0  0  0  0
  3  6  1  0  0  0  0
  2  7  1  0  0  0  0
  2  8  1  0  0  0  0
  2  9  1  0  0  0  0
  6 10  1  0  0  0  0
  6 11  1  0  0  0  0
  6 12  1  0  0  0  0
M  END
>  <Substance ID> (288)
288

>  <Mouse_Female_Canc> (288)
3

>  <SAL> (288)
3

>  <Rat_Male_Canc> (288)
3

>  <TD50_Rat> (288)
ND

>  <TD50_Mouse> (288)
31.8

>  <Rat_Female_Canc> (288)
ND

>  <Canc> (288)
3

>  <MolWeight> (288)
110.13

>  <Mouse_Male_Canc> (288)
3

>  <Mouse_Male_NTP> (288)
ND

>  <ChemName> (288)
Methyl Methanesulfonate 

>  <Rat_Male_NTP> (288)
ND

>  <Reference> (288)
Toxnet

>  <Formula> (288)
C2H6O3S

>  <SMILES> (288)
CS(=O)(=O)OC

>  <Rat_Female_NTP> (288)
ND

>  <CAS> (288)
66-27-3

>  <Mouse_Female_NTP> (288)
ND

>  <Synonyms> (288)
as-dimethyl sulfite; Methanesulfonic acid methyl ester; methyl ester of methanesulfonic acid; Methyl mesylate; Methylsulfonic acid, methyl ester; MMS.

$$$$
289


 23 25  0  0  0  0  0  0  0  0999 V2000
   38.3904  -57.0435   -1.2207 C   0  0  0  0  0  0  0  0  0  0  0  0
   39.3340  -56.5410   -0.5065 N   0  0  0  0  0  0  0  0  0  0  0  0
   38.6608  -55.4508   -0.4903 C   0  0  0  0  0  0  0  0  0  0  0  0
   41.4231  -59.4421    0.9271 C   0  0  0  0  0  0  0  0  0  0  0  0
   40.5544  -58.5995    0.4004 N   0  0  0  0  0  0  0  0  0  0  0  0
   39.6772  -59.4255    0.9393 C   0  0  0  0  0  0  0  0  0  0  0  0
   42.4952  -55.4556   -0.4415 C   0  0  0  0  0  0  0  0  0  0  0  0
   41.8325  -56.5505   -0.4567 N   0  0  0  0  0  0  0  0  0  0  0  0
   42.7796  -57.0496   -1.1665 C   0  0  0  0  0  0  0  0  0  0  0  0
   40.5660  -57.0646    0.2591 P   0  0  0  0  0  0  0  0  0  0  0  0
   40.5374  -56.3286    1.7555 S   0  0  0  0  0  0  0  0  0  0  0  0
   38.4946  -57.2018   -2.2026 H   0  0  0  0  0  0  0  0  0  0  0  0
   37.7299  -57.6942   -0.8459 H   0  0  0  0  0  0  0  0  0  0  0  0
   38.1615  -55.1477    0.3214 H   0  0  0  0  0  0  0  0  0  0  0  0
   38.9261  -54.6554   -1.0353 H   0  0  0  0  0  0  0  0  0  0  0  0
   41.9391  -60.0867    0.3630 H   0  0  0  0  0  0  0  0  0  0  0  0
   41.9571  -59.2078    1.7395 H   0  0  0  0  0  0  0  0  0  0  0  0
   39.1592  -59.1811    1.7591 H   0  0  0  0  0  0  0  0  0  0  0  0
   39.1412  -60.0601    0.3826 H   0  0  0  0  0  0  0  0  0  0  0  0
   42.2248  -54.6640   -0.9895 H   0  0  0  0  0  0  0  0  0  0  0  0
   42.9900  -55.1461    0.3705 H   0  0  0  0  0  0  0  0  0  0  0  0
   43.4437  -57.6943   -0.7880 H   0  0  0  0  0  0  0  0  0  0  0  0
   42.6786  -57.2123   -2.1480 H   0  0  0  0  0  0  0  0  0  0  0  0
  2  1  1  0  0  0  0
  3  2  1  0  0  0  0
  1  3  1  0  0  0  0
  5  4  1  0  0  0  0
  6  5  1  0  0  0  0
  4  6  1  0  0  0  0
  8  7  1  0  0  0  0
  9  8  1  0  0  0  0
  7  9  1  0  0  0  0
 10 11  2  0  0  0  0
 10  2  1  0  0  0  0
 10  8  1  0  0  0  0
 10  5  1  0  0  0  0
  1 12  1  0  0  0  0
  1 13  1  0  0  0  0
  3 14  1  0  0  0  0
  3 15  1  0  0  0  0
  4 16  1  0  0  0  0
  4 17  1  0  0  0  0
  6 18  1  0  0  0  0
  6 19  1  0  0  0  0
  7 20  1  0  0  0  0
  7 21  1  0  0  0  0
  9 22  1  0  0  0  0
  9 23  1  0  0  0  0
M  END
>  <Substance ID> (289)
289

>  <Mouse_Female_Canc> (289)
3

>  <SAL> (289)
3

>  <Rat_Male_Canc> (289)
3

>  <TD50_Rat> (289)
0.164

>  <TD50_Mouse> (289)
0.223

>  <Rat_Female_Canc> (289)
3

>  <Canc> (289)
3

>  <MolWeight> (289)
189.21

>  <Mouse_Male_Canc> (289)
3

>  <Mouse_Male_NTP> (289)
ND

>  <ChemName> (289)
Thiotepa

>  <Rat_Male_NTP> (289)
ND

>  <Reference> (289)
NTP58

>  <Formula> (289)
C6H12N3PS

>  <SMILES> (289)
S=P(N1CC1)(N1CC1)N1CC1

>  <Rat_Female_NTP> (289)
ND

>  <CAS> (289)
52-24-4

>  <Mouse_Female_NTP> (289)
ND

>  <Synonyms> (289)
1,1',1''-phosphinothioylidynetrisaziridine; cbc 806495; Tiofozil; Tio-tef; Tris(1-aziridinyl)phosphine sulfide; tris(aziridinyl)phosphine sulfide; Tri(ethyleneimino)thiophosphoramide; Triethylenethiophosphoramide; Triethylenethiophosphorotriamide; Tris(ethylenimino)thiophosphate; Triethylene thiophosphoramide; TSPA; Girostan; N,N',N''-Tri-1,2-ethanediylphosphorothioic triamide; N,N',N''-Tri-1,2-ethanediylthiophosphoramide; N,N',N''-Triethylenephosphorothioic triamide; N,N',N''-Triethylenethiophosphamide; N,N',N''-Triethylenethiophosphoramide; N,N',N''-triethylenethiophosphortriamide; Oncotepa; Oncothio-tepa; Oncotiotepa; Phosphorothioic acid triethylenetriamide; sk 6882; Stepa; Tespa; Tespamine; Thiofozil; Thiotef; Thio-Tep; Thio-tepa S; Thiotriethylenephosphoramide; Tifosyl; Tiofosfamid; Tiofosyl.

$$$$
290


 30 33  0  0  0  0  0  0  0  0999 V2000
   36.8457  -69.4666    0.0030 C   0  0  0  0  0  0  0  0  0  0  0  0
   37.2541  -68.2540   -0.0048 N   0  0  0  0  0  0  0  0  0  0  0  0
   36.0355  -67.8896   -0.0107 C   0  0  0  0  0  0  0  0  0  0  0  0
   43.5780  -68.5233    0.0036 C   0  0  0  0  0  0  0  0  0  0  0  0
   42.2899  -68.5500    0.0069 N   0  0  0  0  0  0  0  0  0  0  0  0
   42.4264  -69.8410   -0.0054 C   0  0  0  0  0  0  0  0  0  0  0  0
   42.4611  -64.0460   -0.0272 C   0  0  0  0  0  0  0  0  0  0  0  0
   42.3077  -65.3340    0.0019 N   0  0  0  0  0  0  0  0  0  0  0  0
   43.5949  -65.3778    0.0460 C   0  0  0  0  0  0  0  0  0  0  0  0
   38.5276  -66.2615   -0.0104 C   0  0  0  0  0  0  0  0  0  0  0  0
   38.5067  -67.5808   -0.0047 C   0  0  0  0  0  0  0  0  0  0  0  0
   39.7612  -68.3211    0.0040 C   0  0  0  0  0  0  0  0  0  0  0  0
   41.1127  -67.6233    0.0044 C   0  0  0  0  0  0  0  0  0  0  0  0
   41.1210  -66.2442    0.0001 C   0  0  0  0  0  0  0  0  0  0  0  0
   39.7790  -65.5350   -0.0082 C   0  0  0  0  0  0  0  0  0  0  0  0
   39.7116  -64.2998   -0.0113 O   0  0  0  0  0  0  0  0  0  0  0  0
   39.6984  -69.5539    0.0109 O   0  0  0  0  0  0  0  0  0  0  0  0
   36.8909  -70.0481   -0.8093 H   0  0  0  0  0  0  0  0  0  0  0  0
   36.8867  -70.0362    0.8239 H   0  0  0  0  0  0  0  0  0  0  0  0
   35.5896  -67.5147    0.8021 H   0  0  0  0  0  0  0  0  0  0  0  0
   35.5938  -67.5266   -0.8311 H   0  0  0  0  0  0  0  0  0  0  0  0
   44.0987  -68.2717   -0.8121 H   0  0  0  0  0  0  0  0  0  0  0  0
   44.1032  -68.2869    0.8211 H   0  0  0  0  0  0  0  0  0  0  0  0
   42.2546  -70.3988    0.8066 H   0  0  0  0  0  0  0  0  0  0  0  0
   42.2501  -70.3837   -0.8267 H   0  0  0  0  0  0  0  0  0  0  0  0
   42.3217  -63.5155   -0.8634 H   0  0  0  0  0  0  0  0  0  0  0  0
   42.2672  -63.4721    0.7684 H   0  0  0  0  0  0  0  0  0  0  0  0
   44.0869  -65.6068    0.8859 H   0  0  0  0  0  0  0  0  0  0  0  0
   44.1414  -65.6501   -0.7459 H   0  0  0  0  0  0  0  0  0  0  0  0
   37.6650  -65.7556   -0.0163 H   0  0  0  0  0  0  0  0  0  0  0  0
  2  1  1  0  0  0  0
  3  2  1  0  0  0  0
  1  3  1  0  0  0  0
  5  4  1  0  0  0  0
  6  5  1  0  0  0  0
  4  6  1  0  0  0  0
  8  7  1  0  0  0  0
  9  8  1  0  0  0  0
  7  9  1  0  0  0  0
 10 11  2  0  0  0  0
 10 15  1  0  0  0  0
 11 12  1  0  0  0  0
 12 13  1  0  0  0  0
 13 14  2  0  0  0  0
 14 15  1  0  0  0  0
 14  8  1  0  0  0  0
 13  5  1  0  0  0  0
 11  2  1  0  0  0  0
 15 16  2  0  0  0  0
 12 17  2  0  0  0  0
  1 18  1  0  0  0  0
  1 19  1  0  0  0  0
  3 20  1  0  0  0  0
  3 21  1  0  0  0  0
  4 22  1  0  0  0  0
  4 23  1  0  0  0  0
  6 24  1  0  0  0  0
  6 25  1  0  0  0  0
  7 26  1  0  0  0  0
  7 27  1  0  0  0  0
  9 28  1  0  0  0  0
  9 29  1  0  0  0  0
 10 30  1  0  0  0  0
M  END
>  <Substance ID> (290)
290

>  <Mouse_Female_Canc> (290)
ND

>  <SAL> (290)
ND

>  <Rat_Male_Canc> (290)
3

>  <TD50_Rat> (290)
0.00504

>  <TD50_Mouse> (290)
ND

>  <Rat_Female_Canc> (290)
ND

>  <Canc> (290)
3

>  <MolWeight> (290)
231.25

>  <Mouse_Male_Canc> (290)
ND

>  <Mouse_Male_NTP> (290)
ND

>  <ChemName> (290)
Triaziquone

>  <Rat_Male_NTP> (290)
ND

>  <Reference> (290)
CPDB

>  <Formula> (290)
C12H13N3O2

>  <SMILES> (290)
C(C1)N1C(=CC(=O)C=2N(C3)C3)C(=O)C=2N(C4)C4

>  <Rat_Female_NTP> (290)
ND

>  <CAS> (290)
68-76-8

>  <Mouse_Female_NTP> (290)
ND

>  <Synonyms> (290)
10257 R.P.; 1,1',1''-(3,6-dioxo-1,4-cyclohexadiene-1,2,4-triyl)tris aziridine; 2,3,5-tris(1-aziridinyl)-2,5-cyclohexadiene-1,4-dione; 2,3,5-tris(1-aziridinyl)-p-benzoquinone; 2,3,5-tris(aziridinyl)-1,4-benzoquinone; 2,3,5-triethyleneimino-1,4-benzoquinone; bayer 3231; oncovedex; prenimon; riker 601; TEIB; Trenimon; Tris (1-aziridinyl)-para-benzoquinone; tris(1-aziridinyl)p-benzoquinone; triaziquinone; Tris(aziridinyl)-para-benzoquinone; triethyleneiminobenzoquinone; trisethyleneiminoquinone; tris(trenimom).

$$$$
291


 17 16  0  0  0  0  0  0  0  0999 V2000
   38.2947  -85.5187    0.1761 P   0  0  0  0  0  0  0  0  0  0  0  0
   39.5748  -85.8307   -0.5696 O   0  0  0  0  0  0  0  0  0  0  0  0
   37.1934  -85.7877   -0.8258 O   0  0  0  0  0  0  0  0  0  0  0  0
   38.1512  -86.6924    1.1242 O   0  0  0  0  0  0  0  0  0  0  0  0
   38.2331  -84.3331    0.7973 O   0  0  0  0  0  0  0  0  0  0  0  0
   36.1993  -84.7489   -0.7571 C   0  0  0  0  0  0  0  0  0  0  0  0
   38.2799  -87.9385    0.4182 C   0  0  0  0  0  0  0  0  0  0  0  0
   40.5365  -84.7794   -0.3638 C   0  0  0  0  0  0  0  0  0  0  0  0
   35.4759  -84.9346   -1.4220 H   0  0  0  0  0  0  0  0  0  0  0  0
   36.6232  -83.8671   -0.9639 H   0  0  0  0  0  0  0  0  0  0  0  0
   35.8073  -84.7223    0.1626 H   0  0  0  0  0  0  0  0  0  0  0  0
   38.1822  -88.6981    1.0612 H   0  0  0  0  0  0  0  0  0  0  0  0
   39.1792  -87.9844   -0.0169 H   0  0  0  0  0  0  0  0  0  0  0  0
   37.5680  -88.0010   -0.2813 H   0  0  0  0  0  0  0  0  0  0  0  0
   41.3776  -84.9945   -0.8598 H   0  0  0  0  0  0  0  0  0  0  0  0
   40.7375  -84.6973    0.6124 H   0  0  0  0  0  0  0  0  0  0  0  0
   40.1632  -83.9149   -0.7007 H   0  0  0  0  0  0  0  0  0  0  0  0
  1  2  1  0  0  0  0
  1  3  1  0  0  0  0
  1  4  1  0  0  0  0
  1  5  2  0  0  0  0
  3  6  1  0  0  0  0
  4  7  1  0  0  0  0
  2  8  1  0  0  0  0
  6  9  1  0  0  0  0
  6 10  1  0  0  0  0
  6 11  1  0  0  0  0
  7 12  1  0  0  0  0
  7 13  1  0  0  0  0
  7 14  1  0  0  0  0
  8 15  1  0  0  0  0
  8 16  1  0  0  0  0
  8 17  1  0  0  0  0
M  END
>  <Substance ID> (291)
291

>  <Mouse_Female_Canc> (291)
3

>  <SAL> (291)
3

>  <Rat_Male_Canc> (291)
3

>  <TD50_Rat> (291)
ND

>  <TD50_Mouse> (291)
335

>  <Rat_Female_Canc> (291)
1

>  <Canc> (291)
3

>  <MolWeight> (291)
140.08

>  <Mouse_Male_Canc> (291)
1

>  <Mouse_Male_NTP> (291)
ND

>  <ChemName> (291)
Trimethyl Phosphate

>  <Rat_Male_NTP> (291)
ND

>  <Reference> (291)
NTP81

>  <Formula> (291)
C3H9O4P

>  <SMILES> (291)
O=P(OC)(OC)OC

>  <Rat_Female_NTP> (291)
ND

>  <CAS> (291)
512-56-1

>  <Mouse_Female_NTP> (291)
ND

>  <Synonyms> (291)
O,O,O-trimethyl phosphate; Methyl phosphate; Phosphoric acid trimethyl ester; Trimethyl orthophosphate.

$$$$
292


 19 18  0  0  0  0  0  0  0  0999 V2000
    2.7240   -5.5111   -0.3215 C   0  0  0  0  0  0  0  0  0  0  0  0
    3.9961   -4.7511    0.1062 C   0  0  0  0  0  0  0  0  0  0  0  0
    1.3000   -4.5896    0.1660 Cl  0  0  0  0  0  0  0  0  0  0  0  0
    5.1958   -5.5092   -0.2876 N   0  0  0  0  0  0  0  0  0  0  0  0
    5.1958   -6.8236    0.3831 C   0  0  0  0  0  0  0  0  0  0  0  0
    6.3952   -4.7509    0.1065 C   0  0  0  0  0  0  0  0  0  0  0  0
    7.6675   -5.5108   -0.3210 C   0  0  0  0  0  0  0  0  0  0  0  0
    9.0912   -4.5891    0.1669 Cl  0  0  0  0  0  0  0  0  0  0  0  0
    2.7225   -5.6268   -1.3148 H   0  0  0  0  0  0  0  0  0  0  0  0
    2.7075   -6.4086    0.1191 H   0  0  0  0  0  0  0  0  0  0  0  0
    4.0108   -3.8551   -0.3376 H   0  0  0  0  0  0  0  0  0  0  0  0
    3.9917   -4.6318    1.0991 H   0  0  0  0  0  0  0  0  0  0  0  0
    6.0113   -7.3358    0.1137 H   0  0  0  0  0  0  0  0  0  0  0  0
    4.3786   -7.3345    0.1162 H   0  0  0  0  0  0  0  0  0  0  0  0
    5.1974   -6.6925    1.3744 H   0  0  0  0  0  0  0  0  0  0  0  0
    6.3805   -3.8549   -0.3374 H   0  0  0  0  0  0  0  0  0  0  0  0
    6.3994   -4.6316    1.0993 H   0  0  0  0  0  0  0  0  0  0  0  0
    7.6840   -6.4083    0.1196 H   0  0  0  0  0  0  0  0  0  0  0  0
    7.6692   -5.6264   -1.3143 H   0  0  0  0  0  0  0  0  0  0  0  0
  1  2  1  0  0  0  0
  1  3  1  0  0  0  0
  2  4  1  0  0  0  0
  4  5  1  0  0  0  0
  4  6  1  0  0  0  0
  6  7  1  0  0  0  0
  7  8  1  0  0  0  0
  1  9  1  0  0  0  0
  1 10  1  0  0  0  0
  2 11  1  0  0  0  0
  2 12  1  0  0  0  0
  5 13  1  0  0  0  0
  5 14  1  0  0  0  0
  5 15  1  0  0  0  0
  6 16  1  0  0  0  0
  6 17  1  0  0  0  0
  7 18  1  0  0  0  0
  7 19  1  0  0  0  0
M  END
>  <Substance ID> (292)
292

>  <Mouse_Female_Canc> (292)
ND

>  <SAL> (292)
3

>  <Rat_Male_Canc> (292)
3

>  <TD50_Rat> (292)
0.0114

>  <TD50_Mouse> (292)
ND

>  <Rat_Female_Canc> (292)
ND

>  <Canc> (292)
3

>  <MolWeight> (292)
156.05

>  <Mouse_Male_Canc> (292)
ND

>  <Mouse_Male_NTP> (292)
ND

>  <ChemName> (292)
Nitrogen Mustard

>  <Rat_Male_NTP> (292)
ND

>  <Reference> (292)
CPDB

>  <Formula> (292)
C5H11Cl2N

>  <SMILES> (292)
ClCCN(C)CCCl

>  <Rat_Female_NTP> (292)
ND

>  <CAS> (292)
51-75-2

>  <Mouse_Female_NTP> (292)
ND

>  <Synonyms> (292)
2,2'-Dichloro-N-methyldiethylamine; 2-chloro-N-(2-chloroethyl)-N-methylethanamine; Bis(2-chloroethyl)methylamine; Bis(beta-chloroethyl) methylamine; Dichloren; Caryolysine; Chlormethine; HN-2; MBA; Mechloroethamine; Mechlorethanamine; Mustine Note; N,N-bis(2-chloroethyl)methylamine.

$$$$
293


 20 19  0  0  0  0  0  0  0  0999 V2000
    2.6127  -10.1969   -0.1929 C   0  0  0  0  0  0  0  0  0  0  0  0
    3.9112  -10.6376    0.5219 C   0  0  0  0  0  0  0  0  0  0  0  0
    1.2083  -10.6821    0.7742 Cl  0  0  0  0  0  0  0  0  0  0  0  0
    5.1051  -10.2006   -0.2359 N   0  3  0  0  0  0  0  0  0  0  0  0
    5.1035   -8.7311   -0.3464 C   0  0  0  0  0  0  0  0  0  0  0  0
    6.3127  -10.6367    0.5002 C   0  0  0  0  0  0  0  0  0  0  0  0
    7.5978  -10.1950   -0.2380 C   0  0  0  0  0  0  0  0  0  0  0  0
    9.0198  -10.6791    0.7036 Cl  0  0  0  0  0  0  0  0  0  0  0  0
    5.0939  -10.7534   -1.4887 O   0  5  0  0  0  0  0  0  0  0  0  0
    2.6139   -9.2029   -0.3023 H   0  0  0  0  0  0  0  0  0  0  0  0
    2.5638  -10.6317   -1.0921 H   0  0  0  0  0  0  0  0  0  0  0  0
    3.9363  -10.2311    1.4352 H   0  0  0  0  0  0  0  0  0  0  0  0
    3.9198  -11.6345    0.5999 H   0  0  0  0  0  0  0  0  0  0  0  0
    5.9095   -8.4339   -0.8582 H   0  0  0  0  0  0  0  0  0  0  0  0
    5.1227   -8.3275    0.5684 H   0  0  0  0  0  0  0  0  0  0  0  0
    4.2772   -8.4332   -0.8245 H   0  0  0  0  0  0  0  0  0  0  0  0
    6.3039  -10.2302    1.4138 H   0  0  0  0  0  0  0  0  0  0  0  0
    6.3063  -11.6336    0.5783 H   0  0  0  0  0  0  0  0  0  0  0  0
    7.6308  -10.6297   -1.1379 H   0  0  0  0  0  0  0  0  0  0  0  0
    7.5938   -9.2010   -0.3474 H   0  0  0  0  0  0  0  0  0  0  0  0
  1  2  1  0  0  0  0
  1  3  1  0  0  0  0
  2  4  1  0  0  0  0
  4  5  1  0  0  0  0
  4  6  1  0  0  0  0
  6  7  1  0  0  0  0
  7  8  1  0  0  0  0
  4  9  1  0  0  0  0
  1 10  1  0  0  0  0
  1 11  1  0  0  0  0
  2 12  1  0  0  0  0
  2 13  1  0  0  0  0
  5 14  1  0  0  0  0
  5 15  1  0  0  0  0
  5 16  1  0  0  0  0
  6 17  1  0  0  0  0
  6 18  1  0  0  0  0
  7 19  1  0  0  0  0
  7 20  1  0  0  0  0
M  END
>  <Substance ID> (293)
293

>  <Mouse_Female_Canc> (293)
3

>  <SAL> (293)
3

>  <Rat_Male_Canc> (293)
3

>  <TD50_Rat> (293)
0.764

>  <TD50_Mouse> (293)
ND

>  <Rat_Female_Canc> (293)
ND

>  <Canc> (293)
3

>  <MolWeight> (293)
172.05

>  <Mouse_Male_Canc> (293)
3

>  <Mouse_Male_NTP> (293)
ND

>  <ChemName> (293)
Nitrogen mustard N-oxide

>  <Rat_Male_NTP> (293)
ND

>  <Reference> (293)
Toxnet

>  <Formula> (293)
C5H11Cl2NO

>  <SMILES> (293)
[N+](CCCl)(CCCl)(C)[O-]

>  <Rat_Female_NTP> (293)
ND

>  <CAS> (293)
126-85-2

>  <Mouse_Female_NTP> (293)
ND

>  <Synonyms> (293)
2-chloro-N-(2-chloroethyl)-N-methyl-Ethanamine, N-oxide; Mitomen.

$$$$
294


 26 28  0  0  0  0  0  0  0  0999 V2000
    9.6434  -15.9662    0.0020 N   0  0  0  0  0  0  0  0  0  0  0  0
   11.0673  -16.0098    0.0094 C   0  0  0  0  0  0  0  0  0  0  0  0
   11.4447  -14.7353   -0.0035 C   0  0  0  0  0  0  0  0  0  0  0  0
   10.3143  -13.9060   -0.0198 N   0  0  0  0  0  0  0  0  0  0  0  0
    9.2639  -14.6315   -0.0167 C   0  0  0  0  0  0  0  0  0  0  0  0
    8.6903  -17.0275    0.0151 C   0  0  0  0  0  0  0  0  0  0  0  0
   12.7611  -14.2372   -0.0014 N   0  3  0  0  0  0  0  0  0  0  0  0
   13.8042  -15.0505    0.0126 O   0  5  0  0  0  0  0  0  0  0  0  0
   12.9314  -13.0735   -0.0119 O   0  0  0  0  0  0  0  0  0  0  0  0
   12.2372  -17.4047    0.0329 S   0  0  0  0  0  0  0  0  0  0  0  0
   11.5750  -19.0522    0.0145 C   0  0  0  0  0  0  0  0  0  0  0  0
   10.3268  -19.2796    0.0081 N   0  0  0  0  0  0  0  0  0  0  0  0
    9.8035  -20.6119   -0.0080 C   0  0  0  0  0  0  0  0  0  0  0  0
   10.5811  -21.6252   -0.0169 N   0  0  0  0  0  0  0  0  0  0  0  0
   12.4286  -20.1883    0.0056 C   0  0  0  0  0  0  0  0  0  0  0  0
   11.9418  -21.3924   -0.0098 C   0  0  0  0  0  0  0  0  0  0  0  0
   12.9766  -22.3180   -0.0164 N   0  0  0  0  0  0  0  0  0  0  0  0
   14.0779  -21.6521   -0.0050 C   0  0  0  0  0  0  0  0  0  0  0  0
   13.7867  -20.2525    0.0097 N   0  0  0  0  0  0  0  0  0  0  0  0
    8.3227  -14.2937   -0.0262 H   0  0  0  0  0  0  0  0  0  0  0  0
    7.7659  -16.6462    0.0044 H   0  0  0  0  0  0  0  0  0  0  0  0
    8.8141  -17.5771    0.8414 H   0  0  0  0  0  0  0  0  0  0  0  0
    8.8218  -17.6043   -0.7912 H   0  0  0  0  0  0  0  0  0  0  0  0
    8.8133  -20.7515   -0.0124 H   0  0  0  0  0  0  0  0  0  0  0  0
   14.9946  -22.0515   -0.0062 H   0  0  0  0  0  0  0  0  0  0  0  0
   14.4358  -19.4918    0.0206 H   0  0  0  0  0  0  0  0  0  0  0  0
  1  2  1  0  0  0  0
  2  3  2  0  0  0  0
  3  4  1  0  0  0  0
  4  5  2  0  0  0  0
  5  1  1  0  0  0  0
  1  6  1  0  0  0  0
  3  7  1  0  0  0  0
  7  8  1  0  0  0  0
  7  9  2  0  0  0  0
  2 10  1  0  0  0  0
 10 11  1  0  0  0  0
 11 12  2  0  0  0  0
 12 13  1  0  0  0  0
 13 14  2  0  0  0  0
 14 16  1  0  0  0  0
 15 11  1  0  0  0  0
 15 16  2  0  0  0  0
 17 18  2  0  0  0  0
 18 19  1  0  0  0  0
 19 15  1  0  0  0  0
 16 17  1  0  0  0  0
  5 20  1  0  0  0  0
  6 21  1  0  0  0  0
  6 22  1  0  0  0  0
  6 23  1  0  0  0  0
 13 24  1  0  0  0  0
 18 25  1  0  0  0  0
 19 26  1  0  0  0  0
M  END
>  <Substance ID> (294)
294

>  <Mouse_Female_Canc> (294)
3

>  <SAL> (294)
3

>  <Rat_Male_Canc> (294)
ND

>  <TD50_Rat> (294)
NP

>  <TD50_Mouse> (294)
8.92

>  <Rat_Female_Canc> (294)
1

>  <Canc> (294)
3

>  <MolWeight> (294)
277.26

>  <Mouse_Male_Canc> (294)
1

>  <Mouse_Male_NTP> (294)
ND

>  <ChemName> (294)
Azathioprine

>  <Rat_Male_NTP> (294)
ND

>  <Reference> (294)
CPDB

>  <Formula> (294)
C9H7N7O2S

>  <SMILES> (294)
CN1C(=C(N=C1)[N+](=O)[O-])SC2=NC=NC3=C2N=CN3

>  <Rat_Female_NTP> (294)
ND

>  <CAS> (294)
446-86-6

>  <Mouse_Female_NTP> (294)
ND

>  <Synonyms> (294)
6-[(1-methyl-4-nitro-1H-imidazol-5-yl)thio]-1H-Purine; 6-(1-methyl-p-nitro-5-imidazolyl)-thiopurine; 6-((1-methyl-4-nitroimidazol-5-yl)thio)purine; 6-(methyl-p-nitro-5-imidazolyl)-thiopurine; azatioprin; azothioprine; bw 57-322; ccucol; Cytostatics; Imuran; imurek; imurel; methylnitroimidazolylmercaptopurine.

$$$$
295
 

 46 46  0  0  0  0  0  0  0  0999 V2000
   33.0353  -14.7664    0.2334 C   0  0  0  0  0  0  0  0  0  0  0  0
   34.3598  -14.7095    0.0973 C   0  0  0  0  0  0  0  0  0  0  0  0
   35.1098  -15.9065   -0.2809 C   0  0  0  0  0  0  0  0  0  0  0  0
   34.4669  -17.0528   -0.4942 C   0  0  0  0  0  0  0  0  0  0  0  0
   33.0098  -17.1128   -0.3518 C   0  0  0  0  0  0  0  0  0  0  0  0
   32.3196  -16.0275    0.0030 C   0  0  0  0  0  0  0  0  0  0  0  0
   30.7914  -16.0351    0.1484 C   0  0  0  0  0  0  0  0  0  0  0  0
   30.1019  -17.4401    0.0840 C   0  0  2  0  0  0  0  0  0  0  0  0
   28.6470  -17.2370    0.1299 N   0  0  0  0  0  0  0  0  0  0  0  0
   30.4873  -18.3417    1.2915 C   0  0  0  0  0  0  0  0  0  0  0  0
   30.3635  -17.9377   -0.8613 H   0  0  0  0  0  0  0  0  0  0  0  0
   32.5263  -13.9460    0.4938 H   0  0  0  0  0  0  0  0  0  0  0  0
   34.8414  -13.8472    0.2539 H   0  0  0  0  0  0  0  0  0  0  0  0
   36.1040  -15.8642   -0.3792 H   0  0  0  0  0  0  0  0  0  0  0  0
   34.9784  -17.8727   -0.7515 H   0  0  0  0  0  0  0  0  0  0  0  0
   32.5294  -17.9732   -0.5216 H   0  0  0  0  0  0  0  0  0  0  0  0
   30.5663  -15.6243    1.0319 H   0  0  0  0  0  0  0  0  0  0  0  0
   30.4114  -15.4741   -0.5871 H   0  0  0  0  0  0  0  0  0  0  0  0
   28.1849  -18.1228    0.0899 H   0  0  0  0  0  0  0  0  0  0  0  0
   28.3633  -16.6781   -0.6494 H   0  0  0  0  0  0  0  0  0  0  0  0
   30.0260  -19.2251    1.2092 H   0  0  0  0  0  0  0  0  0  0  0  0
   30.2068  -17.8978    2.1426 H   0  0  0  0  0  0  0  0  0  0  0  0
   31.4773  -18.4827    1.3002 H   0  0  0  0  0  0  0  0  0  0  0  0
   36.3237  -19.0013   -0.2329 C   0  0  0  0  0  0  0  0  0  0  0  0
   37.6467  -18.9435   -0.0971 C   0  0  0  0  0  0  0  0  0  0  0  0
   38.3974  -20.1411    0.2812 C   0  0  0  0  0  0  0  0  0  0  0  0
   37.7544  -21.2868    0.4941 C   0  0  0  0  0  0  0  0  0  0  0  0
   36.2983  -21.3486    0.3522 C   0  0  0  0  0  0  0  0  0  0  0  0
   35.6059  -20.2598   -0.0034 C   0  0  0  0  0  0  0  0  0  0  0  0
   34.0792  -20.2701   -0.1482 C   0  0  0  0  0  0  0  0  0  0  0  0
   33.3893  -21.6743   -0.0840 C   0  0  1  0  0  0  0  0  0  0  0  0
   31.9346  -21.4714   -0.1298 N   0  0  0  0  0  0  0  0  0  0  0  0
   33.7750  -22.5762   -1.2914 C   0  0  0  0  0  0  0  0  0  0  0  0
   33.6511  -22.1722    0.8614 H   0  0  0  0  0  0  0  0  0  0  0  0
   35.8153  -18.1805   -0.4933 H   0  0  0  0  0  0  0  0  0  0  0  0
   38.1279  -18.0810   -0.2537 H   0  0  0  0  0  0  0  0  0  0  0  0
   39.3917  -20.0989    0.3794 H   0  0  0  0  0  0  0  0  0  0  0  0
   38.2663  -22.1064    0.7514 H   0  0  0  0  0  0  0  0  0  0  0  0
   35.8184  -22.2094    0.5220 H   0  0  0  0  0  0  0  0  0  0  0  0
   33.6991  -19.7094    0.5874 H   0  0  0  0  0  0  0  0  0  0  0  0
   33.8537  -19.8593   -1.0316 H   0  0  0  0  0  0  0  0  0  0  0  0
   31.4726  -22.3573   -0.0900 H   0  0  0  0  0  0  0  0  0  0  0  0
   31.6891  -21.0060   -0.9803 H   0  0  0  0  0  0  0  0  0  0  0  0
   33.3133  -23.4594   -1.2093 H   0  0  0  0  0  0  0  0  0  0  0  0
   34.7649  -22.7175   -1.2997 H   0  0  0  0  0  0  0  0  0  0  0  0
   33.4949  -22.1321   -2.1426 H   0  0  0  0  0  0  0  0  0  0  0  0
  1  2  2  0  0  0  0
  2  3  1  0  0  0  0
  3  4  2  0  0  0  0
  4  5  1  0  0  0  0
  5  6  2  0  0  0  0
  6  1  1  0  0  0  0
  6  7  1  0  0  0  0
  7  8  1  0  0  0  0
  8  9  1  0  0  0  0
  8 10  1  0  0  0  0
  8 11  1  6  0  0  0
  1 12  1  0  0  0  0
  2 13  1  0  0  0  0
  3 14  1  0  0  0  0
  4 15  1  0  0  0  0
  5 16  1  0  0  0  0
  7 17  1  0  0  0  0
  7 18  1  0  0  0  0
  9 19  1  0  0  0  0
  9 20  1  0  0  0  0
 10 21  1  0  0  0  0
 10 22  1  0  0  0  0
 10 23  1  0  0  0  0
 24 25  2  0  0  0  0
 25 26  1  0  0  0  0
 26 27  2  0  0  0  0
 27 28  1  0  0  0  0
 28 29  2  0  0  0  0
 29 24  1  0  0  0  0
 29 30  1  0  0  0  0
 30 31  1  0  0  0  0
 31 32  1  0  0  0  0
 31 33  1  0  0  0  0
 31 34  1  1  0  0  0
 24 35  1  0  0  0  0
 25 36  1  0  0  0  0
 26 37  1  0  0  0  0
 27 38  1  0  0  0  0
 28 39  1  0  0  0  0
 30 40  1  0  0  0  0
 30 41  1  0  0  0  0
 32 42  1  0  0  0  0
 32 43  1  0  0  0  0
 33 44  1  0  0  0  0
 33 45  1  0  0  0  0
 33 46  1  0  0  0  0
M  END
>  <Substance ID> (295)
295

>  <Mouse_Female_Canc> (295)
1

>  <SAL> (295)
2

>  <Rat_Male_Canc> (295)
1

>  <TD50_Rat> (295)
NP

>  <TD50_Mouse> (295)
NP

>  <Rat_Female_Canc> (295)
1

>  <Canc> (295)
1

>  <MolWeight> (295)
368.49

>  <Mouse_Male_Canc> (295)
1

>  <Mouse_Male_NTP> (295)
NE

>  <ChemName> (295)
DL-Amphetamine Sulfate

>  <Rat_Male_NTP> (295)
NE

>  <Reference> (295)
NTP387

>  <Formula> (295)
C9H13N.C9H13N.H2SO4

>  <SMILES> (295)
N[C@@H](Cc1ccccc1)C.N[C@@H](C)Cc1ccccc1.S(=O)(=O)(O)(O)

>  <Rat_Female_NTP> (295)
NE

>  <CAS> (295)
60-13-9

>  <Mouse_Female_NTP> (295)
NE

>  <Synonyms> (295)
(+-)-2-amino-1-phenylpropane sulfate; (+-)-amphetamine sulfate; Alentol; amphamine sulfate; Amphedrine Sulfate; Amphetamine sulfate; Amphoids-S; Benzedrine Sulfate; Linampheta; phenisopropylamine sulfate; Psychoton; Simpamina.

$$$$
296


 18 19  0  0  0  0  0  0  0  0999 V2000
    7.8314  -26.0543    0.0009 C   0  0  0  0  0  0  0  0  0  0  0  0
    6.5646  -26.7868    0.0007 C   0  0  0  0  0  0  0  0  0  0  0  0
    8.9844  -26.7196    0.0000 C   0  0  0  0  0  0  0  0  0  0  0  0
    8.9853  -28.1826   -0.0004 C   0  0  0  0  0  0  0  0  0  0  0  0
    7.8327  -28.8493    0.0002 C   0  0  0  0  0  0  0  0  0  0  0  0
    6.5657  -28.1186    0.0007 C   0  0  0  0  0  0  0  0  0  0  0  0
    5.2991  -28.8512    0.0004 C   0  0  0  0  0  0  0  0  0  0  0  0
    4.1455  -28.1866   -0.0004 C   0  0  0  0  0  0  0  0  0  0  0  0
    4.1446  -26.7230   -0.0002 C   0  0  0  0  0  0  0  0  0  0  0  0
    5.2970  -26.0563    0.0003 C   0  0  0  0  0  0  0  0  0  0  0  0
    7.8309  -25.0543    0.0017 H   0  0  0  0  0  0  0  0  0  0  0  0
    9.8502  -26.2192   -0.0004 H   0  0  0  0  0  0  0  0  0  0  0  0
    9.8516  -28.6821   -0.0011 H   0  0  0  0  0  0  0  0  0  0  0  0
    7.8333  -29.8493    0.0002 H   0  0  0  0  0  0  0  0  0  0  0  0
    5.2999  -29.8512    0.0008 H   0  0  0  0  0  0  0  0  0  0  0  0
    3.2799  -28.6872   -0.0011 H   0  0  0  0  0  0  0  0  0  0  0  0
    3.2782  -26.2237   -0.0005 H   0  0  0  0  0  0  0  0  0  0  0  0
    5.2961  -25.0563    0.0005 H   0  0  0  0  0  0  0  0  0  0  0  0
 10  2  1  0  0  0  0
  2  6  2  0  0  0  0
  2  1  1  0  0  0  0
  1  3  2  0  0  0  0
  3  4  1  0  0  0  0
  4  5  2  0  0  0  0
  5  6  1  0  0  0  0
  6  7  1  0  0  0  0
  7  8  2  0  0  0  0
  8  9  1  0  0  0  0
  9 10  2  0  0  0  0
  1 11  1  0  0  0  0
  3 12  1  0  0  0  0
  4 13  1  0  0  0  0
  5 14  1  0  0  0  0
  7 15  1  0  0  0  0
  8 16  1  0  0  0  0
  9 17  1  0  0  0  0
 10 18  1  0  0  0  0
M  END
>  <Substance ID> (296)
296

>  <Mouse_Female_Canc> (296)
3

>  <SAL> (296)
1

>  <Rat_Male_Canc> (296)
3

>  <TD50_Rat> (296)
ND

>  <TD50_Mouse> (296)
163

>  <Rat_Female_Canc> (296)
3

>  <Canc> (296)
3

>  <MolWeight> (296)
128.17

>  <Mouse_Male_Canc> (296)
1

>  <Mouse_Male_NTP> (296)
NE

>  <ChemName> (296)
Naphthalene

>  <Rat_Male_NTP> (296)
CE

>  <Reference> (296)
NTP410 & NTP500

>  <Formula> (296)
C10H8

>  <SMILES> (296)
C1=C2C(=CC=C1)C=CC=C2

>  <Rat_Female_NTP> (296)
CE

>  <CAS> (296)
91-20-3

>  <Mouse_Female_NTP> (296)
SE

>  <Synonyms> (296)
Camphor tar; mighty 150; mighty rd1; Mothballs; Moth Flakes; Naphthalene, crude; Naphthalene, molten; Naphthene; tar camphor; white tar.

$$$$
297


 40 42  0  0  0  0  0  0  0  0999 V2000
    7.9126  -38.3134   -0.2011 C   0  0  0  0  0  0  0  0  0  0  0  0
    8.0177  -39.6165    0.1228 C   0  0  0  0  0  0  0  0  0  0  0  0
   10.4451  -39.5831   -0.0406 C   0  0  0  0  0  0  0  0  0  0  0  0
   10.3533  -38.1928   -0.4108 C   0  0  0  0  0  0  0  0  0  0  0  0
    9.3337  -40.2635    0.2056 C   0  0  0  0  0  0  0  0  0  0  0  0
    9.1641  -37.6034   -0.4934 C   0  0  0  0  0  0  0  0  0  0  0  0
    2.8903  -38.2061   -0.1355 C   0  0  0  0  0  0  0  0  0  0  0  0
    2.8101  -39.5005    0.1569 C   0  0  0  0  0  0  0  0  0  0  0  0
    5.2204  -39.6830    0.2181 C   0  0  0  0  0  0  0  0  0  0  0  0
    5.3310  -38.2620   -0.1149 C   0  0  0  0  0  0  0  0  0  0  0  0
    4.0309  -40.2694    0.3436 C   0  0  0  0  0  0  0  0  0  0  0  0
    4.2029  -37.5637   -0.2802 C   0  0  0  0  0  0  0  0  0  0  0  0
    6.6060  -37.5836   -0.2944 N   0  0  0  0  0  0  0  0  0  0  0  0
    6.6361  -40.6188    0.4554 S   0  0  0  0  0  0  0  0  0  0  0  0
    6.4865  -36.1217   -0.6886 C   0  0  0  0  0  0  0  0  0  0  0  0
    6.8942  -34.9420    0.3373 C   0  0  2  0  0  0  0  0  0  0  0  0
    6.3422  -33.6624   -0.1691 N   0  0  0  0  0  0  0  0  0  0  0  0
    8.4199  -34.7306    0.4734 C   0  0  0  0  0  0  0  0  0  0  0  0
    6.7357  -32.5430    0.7095 C   0  0  0  0  0  0  0  0  0  0  0  0
    4.8740  -33.7461   -0.1955 C   0  0  0  0  0  0  0  0  0  0  0  0
   11.3371  -40.0296    0.0298 H   0  0  0  0  0  0  0  0  0  0  0  0
   11.1842  -37.6715   -0.6056 H   0  0  0  0  0  0  0  0  0  0  0  0
    9.3924  -41.2311    0.4512 H   0  0  0  0  0  0  0  0  0  0  0  0
    9.1206  -36.6418   -0.7645 H   0  0  0  0  0  0  0  0  0  0  0  0
    2.0555  -37.6691   -0.2570 H   0  0  0  0  0  0  0  0  0  0  0  0
    1.9175  -39.9422    0.2479 H   0  0  0  0  0  0  0  0  0  0  0  0
    3.9768  -41.2426    0.5672 H   0  0  0  0  0  0  0  0  0  0  0  0
    4.2537  -36.5907   -0.5055 H   0  0  0  0  0  0  0  0  0  0  0  0
    7.0564  -35.9999   -1.5012 H   0  0  0  0  0  0  0  0  0  0  0  0
    5.5274  -35.9703   -0.9277 H   0  0  0  0  0  0  0  0  0  0  0  0
    6.5310  -35.2125    1.2289 H   0  0  0  0  0  0  0  0  0  0  0  0
    8.5977  -33.9893    1.1205 H   0  0  0  0  0  0  0  0  0  0  0  0
    8.8048  -34.4932   -0.4186 H   0  0  0  0  0  0  0  0  0  0  0  0
    8.8452  -35.5722    0.8062 H   0  0  0  0  0  0  0  0  0  0  0  0
    6.3553  -31.6895    0.3533 H   0  0  0  0  0  0  0  0  0  0  0  0
    7.7330  -32.4762    0.7387 H   0  0  0  0  0  0  0  0  0  0  0  0
    6.3855  -32.7039    1.6323 H   0  0  0  0  0  0  0  0  0  0  0  0
    4.4967  -32.8851   -0.5365 H   0  0  0  0  0  0  0  0  0  0  0  0
    4.5327  -33.9160    0.7290 H   0  0  0  0  0  0  0  0  0  0  0  0
    4.5930  -34.4940   -0.7969 H   0  0  0  0  0  0  0  0  0  0  0  0
  1  2  2  0  0  0  0
  3  4  1  0  0  0  0
  1  6  1  0  0  0  0
  2  5  1  0  0  0  0
  5  3  2  0  0  0  0
  4  6  2  0  0  0  0
  7  8  2  0  0  0  0
  9 10  1  0  0  0  0
  7 12  1  0  0  0  0
  8 11  1  0  0  0  0
 11  9  2  0  0  0  0
 10 12  2  0  0  0  0
 10 13  1  0  0  0  0
  9 14  1  0  0  0  0
 13  1  1  0  0  0  0
 14  2  1  0  0  0  0
 13 15  1  0  0  0  0
 15 16  1  0  0  0  0
 16 17  1  0  0  0  0
 16 18  1  0  0  0  0
 17 19  1  0  0  0  0
 17 20  1  0  0  0  0
  3 21  1  0  0  0  0
  4 22  1  0  0  0  0
  5 23  1  0  0  0  0
  6 24  1  0  0  0  0
  7 25  1  0  0  0  0
  8 26  1  0  0  0  0
 11 27  1  0  0  0  0
 12 28  1  0  0  0  0
 15 29  1  0  0  0  0
 15 30  1  0  0  0  0
 16 31  1  0  0  0  0
 18 32  1  0  0  0  0
 18 33  1  0  0  0  0
 18 34  1  0  0  0  0
 19 35  1  0  0  0  0
 19 36  1  0  0  0  0
 19 37  1  0  0  0  0
 20 38  1  0  0  0  0
 20 39  1  0  0  0  0
 20 40  1  0  0  0  0
M  END
>  <Substance ID> (297)
297

>  <Mouse_Female_Canc> (297)
1

>  <SAL> (297)
1

>  <Rat_Male_Canc> (297)
1

>  <TD50_Rat> (297)
NP

>  <TD50_Mouse> (297)
NP

>  <Rat_Female_Canc> (297)
1

>  <Canc> (297)
1

>  <MolWeight> (297)
320.88

>  <Mouse_Male_Canc> (297)
1

>  <Mouse_Male_NTP> (297)
NE

>  <ChemName> (297)
Promethazine Hydrochloride

>  <Rat_Male_NTP> (297)
NE

>  <Reference> (297)
NTP425

>  <Formula> (297)
C17H21ClN2S 

>  <SMILES> (297)
S2c1ccccc1N(c3c2cccc3)CC(N(C)C)C.Cl

>  <Rat_Female_NTP> (297)
NE

>  <CAS> (297)
58-33-3

>  <Mouse_Female_NTP> (297)
NE

>  <Synonyms> (297)
10-(2-dimethylamino-1-propyl)phenothiazine hydrochloride; 10-(2-dimethylaminopropyl)phenothiazine hydrochloride; 10-(2-(dimethylamino)propyl)phenothiazine monohydrochloride; 10-(3-dimethylaminoisopropyl)phenothiazine hydrochloride; Atosil; Dimapp; Diphergan; Dorme; Duplamin; Fargan; Fellozine; Fenazil; Ganphen; Hiberna; hl 8700; Lergigan; N-(2'-dimethylamino-2'-methylethyl)phenothiazine hydrochloride; N-(2-dimethylaminoprop-1-yl)phenothiazine hydrochloride; N,N,alpha-trimethyl-10H-phenothiazine-10-ethanamine monohydrochloride; Phencen; Phenergan; phenergan hydrochloride; Phergan; plletia; primine; Promantine; Promethegan; Prorex; Prothazine; Provigan; Remsed; RP 3277; RP 3389; Sominex; Vallergine; Vallgerine.

$$$$
298


 14 14  0  0  0  0  0  0  0  0999 V2000
    5.0718  -47.6774    0.0001 C   0  0  0  0  0  0  0  0  0  0  0  0
    5.0800  -49.0091   -0.0003 C   0  0  0  0  0  0  0  0  0  0  0  0
    7.5007  -49.0601    0.0002 C   0  0  0  0  0  0  0  0  0  0  0  0
    7.4916  -47.5963    0.0000 C   0  0  0  0  0  0  0  0  0  0  0  0
    6.3517  -49.7332   -0.0002 C   0  0  0  0  0  0  0  0  0  0  0  0
    6.3342  -46.9376    0.0000 C   0  0  0  0  0  0  0  0  0  0  0  0
    6.3252  -45.5467    0.0006 O   0  0  0  0  0  0  0  0  0  0  0  0
    8.7101  -49.7479    0.0003 O   0  0  0  0  0  0  0  0  0  0  0  0
    4.2026  -47.1829    0.0005 H   0  0  0  0  0  0  0  0  0  0  0  0
    4.2170  -49.5143   -0.0008 H   0  0  0  0  0  0  0  0  0  0  0  0
    8.3545  -47.0909   -0.0000 H   0  0  0  0  0  0  0  0  0  0  0  0
    6.3578  -50.7332   -0.0004 H   0  0  0  0  0  0  0  0  0  0  0  0
    7.2657  -45.2068    0.0004 H   0  0  0  0  0  0  0  0  0  0  0  0
    8.5343  -50.7323    0.0004 H   0  0  0  0  0  0  0  0  0  0  0  0
  1  2  2  0  0  0  0
  3  4  1  0  0  0  0
  1  6  1  0  0  0  0
  2  5  1  0  0  0  0
  5  3  2  0  0  0  0
  4  6  2  0  0  0  0
  6  7  1  0  0  0  0
  3  8  1  0  0  0  0
  1  9  1  0  0  0  0
  2 10  1  0  0  0  0
  4 11  1  0  0  0  0
  5 12  1  0  0  0  0
  7 13  1  0  0  0  0
  8 14  1  0  0  0  0
M  END
>  <Substance ID> (298)
298

>  <Mouse_Female_Canc> (298)
1

>  <SAL> (298)
1

>  <Rat_Male_Canc> (298)
1

>  <TD50_Rat> (298)
NP

>  <TD50_Mouse> (298)
NP

>  <Rat_Female_Canc> (298)
1

>  <Canc> (298)
1

>  <MolWeight> (298)
110.11

>  <Mouse_Male_Canc> (298)
1

>  <Mouse_Male_NTP> (298)
NE

>  <ChemName> (298)
Resorcinol

>  <Rat_Male_NTP> (298)
NE

>  <Reference> (298)
NTP403

>  <Formula> (298)
C6H6O2

>  <SMILES> (298)
OC1=CC(=CC=C1)O

>  <Rat_Female_NTP> (298)
NE

>  <CAS> (298)
108-46-3

>  <Mouse_Female_NTP> (298)
NE

>  <Synonyms> (298)
1,3-benzenediol; 1,3-Dihydroxybenzene; m-dihydroxybenzene; m-Hydroquinone; 3-Hydroxyphenol; C.I. 76505; Eskamel; Resorcin.

$$$$
299


 12 12  0  0  0  0  0  0  0  0999 V2000
   16.7861  -13.1162    0.0003 O   0  0  0  0  0  0  0  0  0  0  0  0
   17.1894  -14.5108   -0.0009 C   0  0  0  0  0  0  0  0  0  0  0  0
   18.7471  -14.5715    0.0015 C   0  0  0  0  0  0  0  0  0  0  0  0
   19.2212  -13.1187   -0.0010 C   0  0  0  0  0  0  0  0  0  0  0  0
   17.9510  -12.3654    0.0003 C   0  0  0  0  0  0  0  0  0  0  0  0
   17.9280  -11.1292    0.0008 O   0  0  0  0  0  0  0  0  0  0  0  0
   16.8324  -14.9663    0.8146 H   0  0  0  0  0  0  0  0  0  0  0  0
   16.8349  -14.9642   -0.8187 H   0  0  0  0  0  0  0  0  0  0  0  0
   19.0780  -15.0469   -0.8137 H   0  0  0  0  0  0  0  0  0  0  0  0
   19.0757  -15.0434    0.8196 H   0  0  0  0  0  0  0  0  0  0  0  0
   19.7627  -12.9144    0.8144 H   0  0  0  0  0  0  0  0  0  0  0  0
   19.7599  -12.9163   -0.8188 H   0  0  0  0  0  0  0  0  0  0  0  0
  1  2  1  0  0  0  0
  3  4  1  0  0  0  0
  4  5  1  0  0  0  0
  5  1  1  0  0  0  0
  2  3  1  0  0  0  0
  5  6  2  0  0  0  0
  2  7  1  0  0  0  0
  2  8  1  0  0  0  0
  3  9  1  0  0  0  0
  3 10  1  0  0  0  0
  4 11  1  0  0  0  0
  4 12  1  0  0  0  0
M  END
>  <Substance ID> (299)
299

>  <Mouse_Female_Canc> (299)
1

>  <SAL> (299)
1

>  <Rat_Male_Canc> (299)
1

>  <TD50_Rat> (299)
NP

>  <TD50_Mouse> (299)
NP

>  <Rat_Female_Canc> (299)
1

>  <Canc> (299)
2

>  <MolWeight> (299)
86.09

>  <Mouse_Male_Canc> (299)
2

>  <Mouse_Male_NTP> (299)
EE

>  <ChemName> (299)
gamma-Butyrolactone

>  <Rat_Male_NTP> (299)
NE

>  <Reference> (299)
NTP406

>  <Formula> (299)
C4H6O2

>  <SMILES> (299)
O=C1CCCO1

>  <Rat_Female_NTP> (299)
NE

>  <CAS> (299)
96-48-0

>  <Mouse_Female_NTP> (299)
NE

>  <Synonyms> (299)
1,4-Butanolide; 1,4-Lactone; 4-Butyrolactone; 4-Butanolide; 4-deoxytetronic acid; 4-Hydroxybutyric Acid Lactone; 4-hydroxybutyric acid, gamma-lactone; dihydro-2(3H)-furanone; BLO; BLON; butyrl lactone; Butyric Acid Lactone; Butyrolactone; butyrylactone; Hydroxybutanoic Acid Lactone; sigma-Butyrolactone; tetrahydro-2-furanone; Tetrahydro-2-Furanone Dihydro-2(3H)-Furanone; gamma-6480; gamma BL; gamma-hydroxybutyric acid cyclic ester; gamma-hydroxybutyric acid lactone.

$$$$
300


  8  7  0  0  0  0  0  0  0  0999 V2000
    4.9003  -61.6536   -0.0016 C   0  0  0  0  0  0  0  0  0  0  0  0
    6.3978  -61.5430   -0.0006 C   0  0  0  0  0  0  0  0  0  0  0  0
    7.1806  -62.6933    0.0004 O   0  0  0  0  0  0  0  0  0  0  0  0
    6.9351  -60.4297   -0.0004 O   0  0  0  0  0  0  0  0  0  0  0  0
    4.1890  -60.0359    0.0014 Cl  0  0  0  0  0  0  0  0  0  0  0  0
    4.6033  -62.1466   -0.8194 H   0  0  0  0  0  0  0  0  0  0  0  0
    4.6025  -62.1499    0.8139 H   0  0  0  0  0  0  0  0  0  0  0  0
    8.1477  -62.4389    0.0010 H   0  0  0  0  0  0  0  0  0  0  0  0
  1  2  1  0  0  0  0
  2  3  1  0  0  0  0
  2  4  2  0  0  0  0
  1  5  1  0  0  0  0
  1  6  1  0  0  0  0
  1  7  1  0  0  0  0
  3  8  1  0  0  0  0
M  END
>  <Substance ID> (300)
300

>  <Mouse_Female_Canc> (300)
1

>  <SAL> (300)
1

>  <Rat_Male_Canc> (300)
1

>  <TD50_Rat> (300)
NP

>  <TD50_Mouse> (300)
NP

>  <Rat_Female_Canc> (300)
1

>  <Canc> (300)
1

>  <MolWeight> (300)
94.50

>  <Mouse_Male_Canc> (300)
1

>  <Mouse_Male_NTP> (300)
NE

>  <ChemName> (300)
Monochloroacetic Acid

>  <Rat_Male_NTP> (300)
NE

>  <Reference> (300)
NTP396

>  <Formula> (300)
C2H3ClO2

>  <SMILES> (300)
OC(=O)CCl

>  <Rat_Female_NTP> (300)
NE

>  <CAS> (300)
79-11-8

>  <Mouse_Female_NTP> (300)
NE

>  <Synonyms> (300)
alpha-chloroacetic acid; Chloroacetic Acid; CHLOROACETIC ACID CRYSTALLINE; Chloroacetic acid, liquid; Chloroacetic acid, molten; Chloroacetic acid, solid; Chloroacetic; MCA.

$$$$
301


 47 49  0  0  0  0  0  0  0  0999 V2000
    8.7586  -72.6358   -0.5066 P   0  0  0  0  0  0  0  0  0  0  0  0
    9.6028  -71.4331    0.0652 O   0  0  0  0  0  0  0  0  0  0  0  0
    7.2693  -72.2726   -0.8701 O   0  0  0  0  0  0  0  0  0  0  0  0
    9.1621  -73.9425    0.2572 O   0  0  0  0  0  0  0  0  0  0  0  0
    9.2920  -72.8040   -1.7238 O   0  0  0  0  0  0  0  0  0  0  0  0
    6.0631  -72.7255   -0.2322 C   0  0  0  0  0  0  0  0  0  0  0  0
    8.6036  -75.2141   -0.1075 C   0  0  0  0  0  0  0  0  0  0  0  0
    9.0345  -70.1050    0.2392 C   0  0  0  0  0  0  0  0  0  0  0  0
    9.8426  -69.1115    0.6149 C   0  0  0  0  0  0  0  0  0  0  0  0
    8.0206  -67.5020    0.6382 C   0  0  0  0  0  0  0  0  0  0  0  0
    7.1327  -68.5760    0.2282 C   0  0  0  0  0  0  0  0  0  0  0  0
    9.3148  -67.7528    0.8195 C   0  0  0  0  0  0  0  0  0  0  0  0
    4.9236  -72.2934   -0.7846 C   0  0  0  0  0  0  0  0  0  0  0  0
    3.5761  -73.4986    0.8116 C   0  0  0  0  0  0  0  0  0  0  0  0
    4.8181  -73.9682    1.4392 C   0  0  0  0  0  0  0  0  0  0  0  0
    3.6318  -72.6927   -0.2429 C   0  0  0  0  0  0  0  0  0  0  0  0
    6.0017  -73.5935    0.9514 C   0  0  0  0  0  0  0  0  0  0  0  0
    7.5031  -77.7392   -0.6677 C   0  0  0  0  0  0  0  0  0  0  0  0
    8.5347  -77.6068    0.3572 C   0  0  0  0  0  0  0  0  0  0  0  0
    7.1153  -76.6703   -1.3606 C   0  0  0  0  0  0  0  0  0  0  0  0
    9.0606  -76.4126    0.6233 C   0  0  0  0  0  0  0  0  0  0  0  0
   10.1410  -76.2914    1.6596 C   0  0  0  0  0  0  0  0  0  0  0  0
   11.3054  -69.3708    0.8259 C   0  0  0  0  0  0  0  0  0  0  0  0
    7.6969  -75.3544   -1.0754 C   0  0  0  0  0  0  0  0  0  0  0  0
    7.6162  -69.8004    0.0345 C   0  0  0  0  0  0  0  0  0  0  0  0
    4.9822  -71.3897   -1.9845 C   0  0  0  0  0  0  0  0  0  0  0  0
    7.6615  -66.5801    0.7833 H   0  0  0  0  0  0  0  0  0  0  0  0
    6.1587  -68.3952    0.0915 H   0  0  0  0  0  0  0  0  0  0  0  0
    9.9311  -67.0153    1.0959 H   0  0  0  0  0  0  0  0  0  0  0  0
    2.6905  -73.7850    1.1773 H   0  0  0  0  0  0  0  0  0  0  0  0
    4.7762  -74.5715    2.2357 H   0  0  0  0  0  0  0  0  0  0  0  0
    2.7880  -72.3605   -0.6643 H   0  0  0  0  0  0  0  0  0  0  0  0
    6.8453  -73.9027    1.3904 H   0  0  0  0  0  0  0  0  0  0  0  0
    7.0886  -78.6310   -0.8489 H   0  0  0  0  0  0  0  0  0  0  0  0
    8.8465  -78.4133    0.8596 H   0  0  0  0  0  0  0  0  0  0  0  0
    6.4250  -76.7651   -2.0779 H   0  0  0  0  0  0  0  0  0  0  0  0
   10.3276  -77.1911    2.0541 H   0  0  0  0  0  0  0  0  0  0  0  0
    9.8426  -75.6669    2.3814 H   0  0  0  0  0  0  0  0  0  0  0  0
   10.9731  -75.9353    1.2343 H   0  0  0  0  0  0  0  0  0  0  0  0
   11.7581  -68.5232    1.1027 H   0  0  0  0  0  0  0  0  0  0  0  0
   11.7119  -69.7025   -0.0254 H   0  0  0  0  0  0  0  0  0  0  0  0
   11.4225  -70.0596    1.5414 H   0  0  0  0  0  0  0  0  0  0  0  0
    7.4121  -74.5583   -1.6094 H   0  0  0  0  0  0  0  0  0  0  0  0
    6.9972  -70.5295   -0.2574 H   0  0  0  0  0  0  0  0  0  0  0  0
    4.0534  -71.1587   -2.2740 H   0  0  0  0  0  0  0  0  0  0  0  0
    5.4571  -71.8562   -2.7307 H   0  0  0  0  0  0  0  0  0  0  0  0
    5.4751  -70.5524   -1.7480 H   0  0  0  0  0  0  0  0  0  0  0  0
  1  2  1  0  0  0  0
  1  3  1  0  0  0  0
  1  4  1  0  0  0  0
  1  5  2  0  0  0  0
  3  6  1  0  0  0  0
  4  7  1  0  0  0  0
  2  8  1  0  0  0  0
  8  9  2  0  0  0  0
 10 11  1  0  0  0  0
  8 25  1  0  0  0  0
  9 12  1  0  0  0  0
 12 10  2  0  0  0  0
 11 25  2  0  0  0  0
  6 13  2  0  0  0  0
 14 15  1  0  0  0  0
  6 17  1  0  0  0  0
 13 16  1  0  0  0  0
 16 14  2  0  0  0  0
 15 17  2  0  0  0  0
  7 24  2  0  0  0  0
 18 19  1  0  0  0  0
  7 21  1  0  0  0  0
 24 20  1  0  0  0  0
 20 18  2  0  0  0  0
 19 21  2  0  0  0  0
 21 22  1  0  0  0  0
  9 23  1  0  0  0  0
 13 26  1  0  0  0  0
 10 27  1  0  0  0  0
 11 28  1  0  0  0  0
 12 29  1  0  0  0  0
 14 30  1  0  0  0  0
 15 31  1  0  0  0  0
 16 32  1  0  0  0  0
 17 33  1  0  0  0  0
 18 34  1  0  0  0  0
 19 35  1  0  0  0  0
 20 36  1  0  0  0  0
 22 37  1  0  0  0  0
 22 38  1  0  0  0  0
 22 39  1  0  0  0  0
 23 40  1  0  0  0  0
 23 41  1  0  0  0  0
 23 42  1  0  0  0  0
 24 43  1  0  0  0  0
 25 44  1  0  0  0  0
 26 45  1  0  0  0  0
 26 46  1  0  0  0  0
 26 47  1  0  0  0  0
M  END
>  <Substance ID> (301)
301

>  <Mouse_Female_Canc> (301)
1

>  <SAL> (301)
1

>  <Rat_Male_Canc> (301)
1

>  <TD50_Rat> (301)
NP

>  <TD50_Mouse> (301)
NP

>  <Rat_Female_Canc> (301)
1

>  <Canc> (301)
1

>  <MolWeight> (301)
368.37

>  <Mouse_Male_Canc> (301)
1

>  <Mouse_Male_NTP> (301)
NE

>  <ChemName> (301)
Tricresyl Phosphate

>  <Rat_Male_NTP> (301)
NE

>  <Reference> (301)
NTP433

>  <Formula> (301)
C21H21O4P

>  <SMILES> (301)
P(OC1=C(C=CC=C1)C)(OC2=CC=CC=C2C)(OC3=C(C=CC=C3)C)=O

>  <Rat_Female_NTP> (301)
NE

>  <CAS> (301)
1330-78-5

>  <Mouse_Female_NTP> (301)
NE

>  <Synonyms> (301)
disflamoll tkp; Celluflex; celluflex 179c; cresyl phosphate; Durad; flexol plasticizer tcp; fyrquel 150; imol s 140; Kronitex; Lindol; Phosphoric acid, tolyl ester; Phosphoric acid tris(methylphenyl) ester; phosphoric acid, tritolyl ester; PX-917; Tolylphosphate; Tricresyl phosphates; tris(methylphenyl)ester of phosphoric acid; tris(tolyloxy)phosphine oxide; Tritolyl phosphate; Union carbide flexol TCP.

$$$$
302


 26 27  0  0  0  0  0  0  0  0999 V2000
   29.3528   -3.4538   -0.0598 C   0  0  0  0  0  0  0  0  0  0  0  0
   29.4223   -4.7832   -0.0833 C   0  0  0  0  0  0  0  0  0  0  0  0
   31.8280   -4.7093    0.0481 C   0  0  0  0  0  0  0  0  0  0  0  0
   31.7737   -3.2364    0.0705 C   0  0  0  0  0  0  0  0  0  0  0  0
   30.7217   -5.4383   -0.0253 C   0  0  0  0  0  0  0  0  0  0  0  0
   30.5781   -2.6482    0.0204 C   0  0  0  0  0  0  0  0  0  0  0  0
   30.8350   -7.1608   -0.0519 Cl  0  0  0  0  0  0  0  0  0  0  0  0
   30.4903   -1.2603    0.0392 O   0  0  0  0  0  0  0  0  0  0  0  0
   33.0270   -2.3158    0.1447 C   0  0  0  0  0  0  0  0  0  0  0  0
   34.4689   -2.8953    0.0643 C   0  0  0  0  0  0  0  0  0  0  0  0
   34.7481   -4.1994    0.0087 C   0  0  0  0  0  0  0  0  0  0  0  0
   37.1248   -3.8060   -0.1020 C   0  0  0  0  0  0  0  0  0  0  0  0
   36.8419   -2.3736   -0.0405 C   0  0  0  0  0  0  0  0  0  0  0  0
   36.1219   -4.6773   -0.0760 C   0  0  0  0  0  0  0  0  0  0  0  0
   35.5839   -1.9421    0.0403 C   0  0  0  0  0  0  0  0  0  0  0  0
   28.4617   -3.0016   -0.0970 H   0  0  0  0  0  0  0  0  0  0  0  0
   28.5864   -5.3291   -0.1404 H   0  0  0  0  0  0  0  0  0  0  0  0
   32.7157   -5.1680    0.0891 H   0  0  0  0  0  0  0  0  0  0  0  0
   31.4085   -0.8684    0.0956 H   0  0  0  0  0  0  0  0  0  0  0  0
   32.9428   -1.6640   -0.6090 H   0  0  0  0  0  0  0  0  0  0  0  0
   32.9674   -1.8284    1.0158 H   0  0  0  0  0  0  0  0  0  0  0  0
   33.9992   -4.8619    0.0254 H   0  0  0  0  0  0  0  0  0  0  0  0
   38.0692   -4.1291   -0.1635 H   0  0  0  0  0  0  0  0  0  0  0  0
   37.5945   -1.7155   -0.0591 H   0  0  0  0  0  0  0  0  0  0  0  0
   36.3096   -5.6588   -0.1144 H   0  0  0  0  0  0  0  0  0  0  0  0
   35.3983   -0.9605    0.0849 H   0  0  0  0  0  0  0  0  0  0  0  0
  1  2  2  0  0  0  0
  3  4  1  0  0  0  0
  1  6  1  0  0  0  0
  2  5  1  0  0  0  0
  5  3  2  0  0  0  0
  4  6  2  0  0  0  0
  5  7  1  0  0  0  0
  6  8  1  0  0  0  0
  4  9  1  0  0  0  0
  9 10  1  0  0  0  0
 10 11  2  0  0  0  0
 12 13  1  0  0  0  0
 10 15  1  0  0  0  0
 11 14  1  0  0  0  0
 14 12  2  0  0  0  0
 13 15  2  0  0  0  0
  1 16  1  0  0  0  0
  2 17  1  0  0  0  0
  3 18  1  0  0  0  0
  8 19  1  0  0  0  0
  9 20  1  0  0  0  0
  9 21  1  0  0  0  0
 11 22  1  0  0  0  0
 12 23  1  0  0  0  0
 13 24  1  0  0  0  0
 14 25  1  0  0  0  0
 15 26  1  0  0  0  0
M  END
>  <Substance ID> (302)
302

>  <Mouse_Female_Canc> (302)
1

>  <SAL> (302)
1

>  <Rat_Male_Canc> (302)
1

>  <TD50_Rat> (302)
NP

>  <TD50_Mouse> (302)
1350

>  <Rat_Female_Canc> (302)
2

>  <Canc> (302)
3

>  <MolWeight> (302)
218.68

>  <Mouse_Male_Canc> (302)
3

>  <Mouse_Male_NTP> (302)
SE

>  <ChemName> (302)
o-Benzyl-p-Chlorophenol

>  <Rat_Male_NTP> (302)
NE

>  <Reference> (302)
NTP424

>  <Formula> (302)
C13H11ClO

>  <SMILES> (302)
OC1=C(C=C(C=C1)Cl)CC2=CC=CC=C2

>  <Rat_Female_NTP> (302)
EE

>  <CAS> (302)
120-32-1

>  <Mouse_Female_NTP> (302)
NE

>  <Synonyms> (302)
4-chloro-2-(phenylmethyl)phenol; 4-chloro-alpha-phenyl-ortho-cresol; 5-chloro-2-hydroxydiphenylmethane; Benzyl-p-chlorophenol; benzylchlorophenol; Bio-clave; Chlorophene; clorofene; ketolin-h; Cresol, 4-chloro-alpha-phenyl-; Neosobenil; Preventol B; Santophen; santophen 1; Sentiphene; Septiphene.

$$$$
303


 19 18  0  0  0  0  0  0  0  0999 V2000
   18.5451  -12.7178   -0.1487 C   0  0  0  0  0  0  0  0  0  0  0  0
   19.3613  -11.6001    0.5583 C   0  0  0  0  0  0  0  0  0  0  0  0
   21.0359  -12.2647    1.2878 Br  0  0  0  0  0  0  0  0  0  0  0  0
   18.2469  -13.8477    0.8526 C   0  0  0  0  0  0  0  0  0  0  0  0
   17.2195  -12.1137   -0.6440 C   0  0  0  0  0  0  0  0  0  0  0  0
   19.3075  -13.2941   -1.3717 C   0  0  0  0  0  0  0  0  0  0  0  0
   17.1932  -15.2218   -0.0200 Br  0  0  0  0  0  0  0  0  0  0  0  0
   16.4917  -11.5897    0.4687 O   0  0  0  0  0  0  0  0  0  0  0  0
   20.5353  -13.9072   -0.9810 O   0  0  0  0  0  0  0  0  0  0  0  0
   19.5625  -10.8795   -0.1052 H   0  0  0  0  0  0  0  0  0  0  0  0
   18.8122  -11.2232    1.3043 H   0  0  0  0  0  0  0  0  0  0  0  0
   19.1070  -14.2422    1.1760 H   0  0  0  0  0  0  0  0  0  0  0  0
   17.7361  -13.4787    1.6291 H   0  0  0  0  0  0  0  0  0  0  0  0
   17.4105  -11.3781   -1.2939 H   0  0  0  0  0  0  0  0  0  0  0  0
   16.6768  -12.8234   -1.0932 H   0  0  0  0  0  0  0  0  0  0  0  0
   18.7318  -13.9773   -1.8209 H   0  0  0  0  0  0  0  0  0  0  0  0
   19.5046  -12.5510   -2.0112 H   0  0  0  0  0  0  0  0  0  0  0  0
   15.6297  -11.1966    0.1485 H   0  0  0  0  0  0  0  0  0  0  0  0
   21.0007  -14.2673   -1.7895 H   0  0  0  0  0  0  0  0  0  0  0  0
  1  2  1  0  0  0  0
  2  3  1  0  0  0  0
  1  4  1  0  0  0  0
  1  5  1  0  0  0  0
  1  6  1  0  0  0  0
  4  7  1  0  0  0  0
  5  8  1  0  0  0  0
  6  9  1  0  0  0  0
  2 10  1  0  0  0  0
  2 11  1  0  0  0  0
  4 12  1  0  0  0  0
  4 13  1  0  0  0  0
  5 14  1  0  0  0  0
  5 15  1  0  0  0  0
  6 16  1  0  0  0  0
  6 17  1  0  0  0  0
  8 18  1  0  0  0  0
  9 19  1  0  0  0  0
M  END
>  <Substance ID> (303)
303

>  <Mouse_Female_Canc> (303)
3

>  <SAL> (303)
3

>  <Rat_Male_Canc> (303)
3

>  <TD50_Rat> (303)
111

>  <TD50_Mouse> (303)
137

>  <Rat_Female_Canc> (303)
3

>  <Canc> (303)
3

>  <MolWeight> (303)
261.94

>  <Mouse_Male_Canc> (303)
3

>  <Mouse_Male_NTP> (303)
CE

>  <ChemName> (303)
2,2-bis(bromomethyl)-1,3-propanediol

>  <Rat_Male_NTP> (303)
CE

>  <Reference> (303)
NTP452

>  <Formula> (303)
C5H10Br2O2

>  <SMILES> (303)
OCC(CO)(CBr)CBr

>  <Rat_Female_NTP> (303)
CE

>  <CAS> (303)
3296-90-0

>  <Mouse_Female_NTP> (303)
CE

>  <Synonyms> (303)
1,3-dibromo-2,2-dimethylolpropane; dibromohydrin pentaerythritol; bisbromomethylpropanediol; bis(bromomethyl)propanol; Dibromoneopentyl glycol; dibromopentaerythritol; FR-1138; pentaerythritol dibromohydrin; pentaerythritol dibromide.

$$$$
304


 15 14  0  0  0  0  0  0  0  0999 V2000
   31.4929  -17.7501    0.9598 C   0  0  0  0  0  0  0  0  0  0  0  0
   32.6868  -17.7950   -0.0118 C   0  0  0  0  0  0  0  0  0  0  0  0
   32.6248  -16.5813   -0.9578 C   0  0  0  0  0  0  0  0  0  0  0  0
   32.6320  -19.0006   -0.7789 O   0  0  0  0  0  0  0  0  0  0  0  0
   34.0018  -17.7552    0.7887 C   0  0  0  0  0  0  0  0  0  0  0  0
   31.5327  -18.5379    1.5743 H   0  0  0  0  0  0  0  0  0  0  0  0
   30.6387  -17.7759    0.4404 H   0  0  0  0  0  0  0  0  0  0  0  0
   31.5308  -16.9071    1.4965 H   0  0  0  0  0  0  0  0  0  0  0  0
   33.3999  -16.6101   -1.5889 H   0  0  0  0  0  0  0  0  0  0  0  0
   32.6631  -15.7380   -0.4217 H   0  0  0  0  0  0  0  0  0  0  0  0
   31.7710  -16.6068   -1.4779 H   0  0  0  0  0  0  0  0  0  0  0  0
   33.4072  -19.0302   -1.4100 H   0  0  0  0  0  0  0  0  0  0  0  0
   34.7774  -17.7843    0.1582 H   0  0  0  0  0  0  0  0  0  0  0  0
   34.0426  -18.5432    1.4031 H   0  0  0  0  0  0  0  0  0  0  0  0
   34.0406  -16.9122    1.3253 H   0  0  0  0  0  0  0  0  0  0  0  0
  1  2  1  0  0  0  0
  2  3  1  0  0  0  0
  2  4  1  0  0  0  0
  2  5  1  0  0  0  0
  1  6  1  0  0  0  0
  1  7  1  0  0  0  0
  1  8  1  0  0  0  0
  3  9  1  0  0  0  0
  3 10  1  0  0  0  0
  3 11  1  0  0  0  0
  4 12  1  0  0  0  0
  5 13  1  0  0  0  0
  5 14  1  0  0  0  0
  5 15  1  0  0  0  0
M  END
>  <Substance ID> (304)
304

>  <Mouse_Female_Canc> (304)
3

>  <SAL> (304)
1

>  <Rat_Male_Canc> (304)
3

>  <TD50_Rat> (304)
64.6

>  <TD50_Mouse> (304)
21900

>  <Rat_Female_Canc> (304)
1

>  <Canc> (304)
3

>  <MolWeight> (304)
74.12

>  <Mouse_Male_Canc> (304)
2

>  <Mouse_Male_NTP> (304)
EE

>  <ChemName> (304)
t-Butyl Alcohol

>  <Rat_Male_NTP> (304)
SE

>  <Reference> (304)
NTP436

>  <Formula> (304)
C4H10O

>  <SMILES> (304)
C(C)(C)(C)O

>  <Rat_Female_NTP> (304)
NE

>  <CAS> (304)
75-65-0

>  <Mouse_Female_NTP> (304)
SE

>  <Synonyms> (304)
1,1-Dimethylethanol; 2-Methyl-2-propanol; 2-Methylpropan-2-ol; Dimethylethanol; Methyl-2-propanol; TBA; tert-Butanol; t-butyl hydroxide; tertiary-butyl alcohol; Trimethylcarbinol; trimethyl methanol.

$$$$
305


 19 20  0  0  0  0  0  0  0  0999 V2000
   30.1578  -26.6522    0.0597 C   0  0  0  0  0  0  0  0  0  0  0  0
   30.1674  -27.9824    0.0697 C   0  0  0  0  0  0  0  0  0  0  0  0
   31.4388  -28.7039    0.0123 C   0  0  0  0  0  0  0  0  0  0  0  0
   31.4174  -25.9167   -0.0237 C   0  0  0  0  0  0  0  0  0  0  0  0
   32.5772  -26.5714   -0.0602 C   0  0  0  0  0  0  0  0  0  0  0  0
   32.5933  -28.0394   -0.0349 C   0  0  0  0  0  0  0  0  0  0  0  0
   33.7861  -28.7833   -0.0877 O   0  0  0  0  0  0  0  0  0  0  0  0
   34.9942  -28.0575    0.0136 C   0  0  0  0  0  0  0  0  0  0  0  0
   35.0456  -26.5782    0.3014 C   0  0  0  0  0  0  0  0  0  0  0  0
   33.8345  -25.8018   -0.2069 C   0  0  0  0  0  0  0  0  0  0  0  0
   36.0588  -28.6821   -0.0433 O   0  0  0  0  0  0  0  0  0  0  0  0
   29.2905  -26.1568    0.1092 H   0  0  0  0  0  0  0  0  0  0  0  0
   29.3064  -28.4887    0.1163 H   0  0  0  0  0  0  0  0  0  0  0  0
   31.4417  -29.7039    0.0085 H   0  0  0  0  0  0  0  0  0  0  0  0
   31.4090  -24.9172   -0.0534 H   0  0  0  0  0  0  0  0  0  0  0  0
   35.1057  -26.4531    1.2917 H   0  0  0  0  0  0  0  0  0  0  0  0
   35.8642  -26.2023   -0.1328 H   0  0  0  0  0  0  0  0  0  0  0  0
   33.9710  -25.5889   -1.1743 H   0  0  0  0  0  0  0  0  0  0  0  0
   33.7548  -24.9519    0.3140 H   0  0  0  0  0  0  0  0  0  0  0  0
  1  2  2  0  0  0  0
  1  4  1  0  0  0  0
  2  3  1  0  0  0  0
  3  6  2  0  0  0  0
  5  4  2  0  0  0  0
  5  6  1  0  0  0  0
  5 10  1  0  0  0  0
  6  7  1  0  0  0  0
  7  8  1  0  0  0  0
  8  9  1  0  0  0  0
  9 10  1  0  0  0  0
  8 11  2  0  0  0  0
  1 12  1  0  0  0  0
  2 13  1  0  0  0  0
  3 14  1  0  0  0  0
  4 15  1  0  0  0  0
  9 16  1  0  0  0  0
  9 17  1  0  0  0  0
 10 18  1  0  0  0  0
 10 19  1  0  0  0  0
M  END
>  <Substance ID> (305)
305

>  <Mouse_Female_Canc> (305)
3

>  <SAL> (305)
1

>  <Rat_Male_Canc> (305)
3

>  <TD50_Rat> (305)
2970

>  <TD50_Mouse> (305)
723

>  <Rat_Female_Canc> (305)
1

>  <Canc> (305)
3

>  <MolWeight> (305)
148.16

>  <Mouse_Male_Canc> (305)
1

>  <Mouse_Male_NTP> (305)
NE

>  <ChemName> (305)
3,4-Dihydrocoumarin

>  <Rat_Male_NTP> (305)
SE

>  <Reference> (305)
NTP423

>  <Formula> (305)
C9H8O2

>  <SMILES> (305)
O=C1OC2=C(C=CC=C2)CC1

>  <Rat_Female_NTP> (305)
NE

>  <CAS> (305)
119-84-6

>  <Mouse_Female_NTP> (305)
SE

>  <Synonyms> (305)
1,2-benzodihydropyrone; 2-chromanone; 2H-1-Benzopyran-2-one, 3,4-dihydro-; Benzo-DiHydro Pyrone/Di Hydro Coumarin; DIHIDROCUMARINA; Dihydrocoumarin; hydrocinnamic acid, o-hydroxy-,lactone; hydrocoumarin; melilotic lactone; melilotin; melilotol; Meliotine.

$$$$
306


 10  9  0  0  0  0  0  0  0  0999 V2000
   31.4706  -36.0609   -0.0002 O   0  0  0  0  0  0  0  0  0  0  0  0
   32.6394  -35.2372   -0.0010 C   0  0  0  0  0  0  0  0  0  0  0  0
   33.8957  -36.1278    0.0005 C   0  0  0  0  0  0  0  0  0  0  0  0
   35.0646  -35.3041   -0.0004 O   0  0  0  0  0  0  0  0  0  0  0  0
   30.6547  -35.4827   -0.0012 H   0  0  0  0  0  0  0  0  0  0  0  0
   32.6404  -34.6612   -0.8184 H   0  0  0  0  0  0  0  0  0  0  0  0
   32.6400  -34.6590    0.8148 H   0  0  0  0  0  0  0  0  0  0  0  0
   33.8947  -36.7038    0.8179 H   0  0  0  0  0  0  0  0  0  0  0  0
   33.8951  -36.7060   -0.8154 H   0  0  0  0  0  0  0  0  0  0  0  0
   35.8804  -35.8823    0.0006 H   0  0  0  0  0  0  0  0  0  0  0  0
  1  2  1  0  0  0  0
  2  3  1  0  0  0  0
  3  4  1  0  0  0  0
  1  5  1  0  0  0  0
  2  6  1  0  0  0  0
  2  7  1  0  0  0  0
  3  8  1  0  0  0  0
  3  9  1  0  0  0  0
  4 10  1  0  0  0  0
M  END
>  <Substance ID> (306)
306

>  <Mouse_Female_Canc> (306)
1

>  <SAL> (306)
1

>  <Rat_Male_Canc> (306)
ND

>  <TD50_Rat> (306)
ND

>  <TD50_Mouse> (306)
NP

>  <Rat_Female_Canc> (306)
ND

>  <Canc> (306)
1

>  <MolWeight> (306)
62.07

>  <Mouse_Male_Canc> (306)
1

>  <Mouse_Male_NTP> (306)
NE

>  <ChemName> (306)
Ethylene Glycol

>  <Rat_Male_NTP> (306)
ND

>  <Reference> (306)
NTP413

>  <Formula> (306)
C2H6O2

>  <SMILES> (306)
C(CO)O

>  <Rat_Female_NTP> (306)
ND

>  <CAS> (306)
107-21-1

>  <Mouse_Female_NTP> (306)
NE

>  <Synonyms> (306)
1,2-Dihydroxyethane; 1,2-Ethanediol; Dowtherm 4000; Dowtherm SR 1; DuPont Zonyl FSE Fluorinated Surfactants; DuPont Zonyl FSO Fluorinated Surfactants; EG; Ethane-1,2-diol; ethylene dihydrate; ethylene alcohol; Fridex; Glycol; Glycol Alcohol; lutrol-9; macrogol 400 bpc; M.E.G.; monoethylene glycol; norkool; tescol; ucar 17.

$$$$
307


 21 22  0  0  0  0  0  0  0  0999 V2000
   34.7487  -57.1656    0.0001 C   0  0  0  0  0  0  0  0  0  0  0  0
   34.6549  -58.4681    0.0006 C   0  0  0  0  0  0  0  0  0  0  0  0
   35.9179  -58.9975   -0.0020 N   0  0  0  0  0  0  0  0  0  0  0  0
   36.7906  -57.8651   -0.0037 C   0  0  0  0  0  0  0  0  0  0  0  0
   36.0888  -56.7872   -0.0024 N   0  0  0  0  0  0  0  0  0  0  0  0
   32.3253  -56.9447   -0.0005 N   0  0  0  0  0  0  0  0  0  0  0  0
   32.2519  -58.3670   -0.0004 C   0  0  0  0  0  0  0  0  0  0  0  0
   33.4405  -59.1361    0.0016 N   0  0  0  0  0  0  0  0  0  0  0  0
   33.5817  -56.3166    0.0023 C   0  0  0  0  0  0  0  0  0  0  0  0
   31.1514  -58.9300   -0.0034 O   0  0  0  0  0  0  0  0  0  0  0  0
   33.6837  -55.0844    0.0056 O   0  0  0  0  0  0  0  0  0  0  0  0
   33.3893  -60.5702    0.0058 C   0  0  0  0  0  0  0  0  0  0  0  0
   31.1247  -56.1587   -0.0043 C   0  0  0  0  0  0  0  0  0  0  0  0
   36.1737  -59.9642   -0.0026 H   0  0  0  0  0  0  0  0  0  0  0  0
   37.7898  -57.9048   -0.0057 H   0  0  0  0  0  0  0  0  0  0  0  0
   34.3194  -60.9374    0.0067 H   0  0  0  0  0  0  0  0  0  0  0  0
   32.9062  -60.8894   -0.8096 H   0  0  0  0  0  0  0  0  0  0  0  0
   32.9065  -60.8846    0.8232 H   0  0  0  0  0  0  0  0  0  0  0  0
   31.3617  -55.1872   -0.0038 H   0  0  0  0  0  0  0  0  0  0  0  0
   30.5849  -56.3700    0.8106 H   0  0  0  0  0  0  0  0  0  0  0  0
   30.5897  -56.3704   -0.8222 H   0  0  0  0  0  0  0  0  0  0  0  0
  1  2  2  0  0  0  0
  2  3  1  0  0  0  0
  3  4  1  0  0  0  0
  4  5  2  0  0  0  0
  1  5  1  0  0  0  0
  6  7  1  0  0  0  0
  6  9  1  0  0  0  0
  7  8  1  0  0  0  0
  8  2  1  0  0  0  0
  1  9  1  0  0  0  0
  7 10  2  0  0  0  0
  9 11  2  0  0  0  0
  8 12  1  0  0  0  0
  6 13  1  0  0  0  0
  3 14  1  0  0  0  0
  4 15  1  0  0  0  0
 12 16  1  0  0  0  0
 12 17  1  0  0  0  0
 12 18  1  0  0  0  0
 13 19  1  0  0  0  0
 13 20  1  0  0  0  0
 13 21  1  0  0  0  0
M  END
>  <Substance ID> (307)
307

>  <Mouse_Female_Canc> (307)
1

>  <SAL> (307)
1

>  <Rat_Male_Canc> (307)
1

>  <TD50_Rat> (307)
NP

>  <TD50_Mouse> (307)
NP

>  <Rat_Female_Canc> (307)
1

>  <Canc> (307)
1

>  <MolWeight> (307)
180.17

>  <Mouse_Male_Canc> (307)
1

>  <Mouse_Male_NTP> (307)
NE

>  <ChemName> (307)
Theophyllin

>  <Rat_Male_NTP> (307)
NE

>  <Reference> (307)
NTP473

>  <Formula> (307)
C7H8N4O2 

>  <SMILES> (307)
CN1C(=O)N(C)c2ncnc2C1(=O)

>  <Rat_Female_NTP> (307)
NE

>  <CAS> (307)
58-55-9

>  <Mouse_Female_NTP> (307)
NE

>  <Synonyms> (307)
1,3-Dimethyl-2,6-dioxo-1,2,3,6-tetrahydropurine; 1,3-Dimethylxanthine; Theokin; Theolair; Theo-Organidin; Theophyl-225; Theospan; Uniphyllin continus; 1H-purine-2,6-dione; 3,7-dihydro-1,3-dimethyl-1H-purine-2,6-dione; Aerolate; Austyn; Bronchodid Duracap; Bronkodyl; Bronkotabs; Elixicon; Elixophyllin; Hylate; Labophylline; LASMA; Mudrane; Nuelin; Nuelin SA; Pro-vent; pseudotheophylline; Quadrinal; Respbid; Slo-Phyllin; Synophylate; Theobid; theocin; Theo-Dur.

$$$$
308


 55 56  0  0  0  0  0  0  0  0999 V2000
   34.9515  -57.2321   -0.4563 C   0  0  0  0  0  0  0  0  0  0  0  0
   34.6939  -58.5300   -0.1546 C   0  0  0  0  0  0  0  0  0  0  0  0
   35.8666  -59.4000    0.1154 C   0  0  0  0  0  0  0  0  0  0  0  0
   37.1232  -58.9458    0.0838 C   0  0  0  0  0  0  0  0  0  0  0  0
   37.3497  -57.5067   -0.2007 C   0  0  0  0  0  0  0  0  0  0  0  0
   36.3109  -56.7315   -0.4518 C   0  0  0  0  0  0  0  0  0  0  0  0
   28.8318  -57.4185    0.0192 C   0  0  0  0  0  0  0  0  0  0  0  0
   28.9598  -58.7317   -0.1066 C   0  0  0  0  0  0  0  0  0  0  0  0
   30.2976  -59.3612   -0.1286 C   0  0  0  0  0  0  0  0  0  0  0  0
   31.3928  -58.6094   -0.0138 C   0  0  0  0  0  0  0  0  0  0  0  0
   31.2403  -57.1924    0.1526 C   0  0  0  0  0  0  0  0  0  0  0  0
   30.0530  -56.5781    0.1617 C   0  0  0  0  0  0  0  0  0  0  0  0
   33.0434  -59.4093   -0.0901 S   0  0  0  0  0  0  0  0  0  0  0  0
   27.5485  -56.8679    0.0073 O   0  0  0  0  0  0  0  0  0  0  0  0
   30.4115  -60.8477   -0.2961 C   0  0  0  0  0  0  0  0  0  0  0  0
   30.0919  -55.0473    0.2895 C   0  0  0  0  0  0  0  0  0  0  0  0
   30.5892  -54.4944   -1.0618 C   0  0  0  0  0  0  0  0  0  0  0  0
   28.7533  -54.3682    0.6285 C   0  0  0  0  0  0  0  0  0  0  0  0
   31.1658  -54.6552    1.3242 C   0  0  0  0  0  0  0  0  0  0  0  0
   33.9545  -56.2349   -0.8299 C   0  0  0  0  0  0  0  0  0  0  0  0
   38.6093  -56.9208   -0.2335 O   0  0  0  0  0  0  0  0  0  0  0  0
   38.2645  -59.9621    0.2940 C   0  0  0  0  0  0  0  0  0  0  0  0
   38.4574  -60.6754   -1.0589 C   0  0  0  0  0  0  0  0  0  0  0  0
   39.6269  -59.3667    0.7103 C   0  0  0  0  0  0  0  0  0  0  0  0
   37.8250  -61.0432    1.2945 C   0  0  0  0  0  0  0  0  0  0  0  0
   35.7098  -60.3642    0.3294 H   0  0  0  0  0  0  0  0  0  0  0  0
   36.4682  -55.7632   -0.6459 H   0  0  0  0  0  0  0  0  0  0  0  0
   28.1430  -59.3029   -0.1876 H   0  0  0  0  0  0  0  0  0  0  0  0
   32.0635  -56.6364    0.2675 H   0  0  0  0  0  0  0  0  0  0  0  0
   27.6102  -55.8752    0.1107 H   0  0  0  0  0  0  0  0  0  0  0  0
   31.3760  -61.1115   -0.2900 H   0  0  0  0  0  0  0  0  0  0  0  0
   29.9980  -61.1183   -1.1655 H   0  0  0  0  0  0  0  0  0  0  0  0
   29.9364  -61.3057    0.4553 H   0  0  0  0  0  0  0  0  0  0  0  0
   30.6288  -53.4961   -1.0197 H   0  0  0  0  0  0  0  0  0  0  0  0
   29.9604  -54.7723   -1.7880 H   0  0  0  0  0  0  0  0  0  0  0  0
   31.5014  -54.8559   -1.2549 H   0  0  0  0  0  0  0  0  0  0  0  0
   28.8866  -53.3790    0.6886 H   0  0  0  0  0  0  0  0  0  0  0  0
   28.4169  -54.7125    1.5051 H   0  0  0  0  0  0  0  0  0  0  0  0
   28.0852  -54.5712   -0.0874 H   0  0  0  0  0  0  0  0  0  0  0  0
   31.1965  -53.6596    1.4124 H   0  0  0  0  0  0  0  0  0  0  0  0
   32.0583  -54.9903    1.0222 H   0  0  0  0  0  0  0  0  0  0  0  0
   30.9399  -55.0610    2.2098 H   0  0  0  0  0  0  0  0  0  0  0  0
   34.4060  -55.3591   -1.0006 H   0  0  0  0  0  0  0  0  0  0  0  0
   33.2934  -56.1293   -0.0871 H   0  0  0  0  0  0  0  0  0  0  0  0
   33.4798  -56.5317   -1.6586 H   0  0  0  0  0  0  0  0  0  0  0  0
   38.5192  -55.9472   -0.4433 H   0  0  0  0  0  0  0  0  0  0  0  0
   39.1910  -61.3502   -0.9789 H   0  0  0  0  0  0  0  0  0  0  0  0
   38.6982  -60.0034   -1.7592 H   0  0  0  0  0  0  0  0  0  0  0  0
   37.6083  -61.1360   -1.3174 H   0  0  0  0  0  0  0  0  0  0  0  0
   40.2938  -60.1036    0.8200 H   0  0  0  0  0  0  0  0  0  0  0  0
   39.5265  -58.8770    1.5764 H   0  0  0  0  0  0  0  0  0  0  0  0
   39.9440  -58.7332    0.0045 H   0  0  0  0  0  0  0  0  0  0  0  0
   38.5688  -61.6984    1.4262 H   0  0  0  0  0  0  0  0  0  0  0  0
   37.0207  -61.5197    0.9392 H   0  0  0  0  0  0  0  0  0  0  0  0
   37.5990  -60.6158    2.1699 H   0  0  0  0  0  0  0  0  0  0  0  0
  1  2  2  0  0  0  0
  2  3  1  0  0  0  0
  3  4  2  0  0  0  0
  4  5  1  0  0  0  0
  5  6  2  0  0  0  0
  6  1  1  0  0  0  0
  7  8  2  0  0  0  0
  8  9  1  0  0  0  0
  9 10  2  0  0  0  0
 10 11  1  0  0  0  0
 11 12  2  0  0  0  0
 12  7  1  0  0  0  0
 10 13  1  0  0  0  0
 13  2  1  0  0  0  0
  7 14  1  0  0  0  0
  9 15  1  0  0  0  0
 12 16  1  0  0  0  0
 16 17  1  0  0  0  0
 16 18  1  0  0  0  0
 16 19  1  0  0  0  0
  1 20  1  0  0  0  0
  5 21  1  0  0  0  0
  4 22  1  0  0  0  0
 22 23  1  0  0  0  0
 22 24  1  0  0  0  0
 22 25  1  0  0  0  0
  3 26  1  0  0  0  0
  6 27  1  0  0  0  0
  8 28  1  0  0  0  0
 11 29  1  0  0  0  0
 14 30  1  0  0  0  0
 15 31  1  0  0  0  0
 15 32  1  0  0  0  0
 15 33  1  0  0  0  0
 17 34  1  0  0  0  0
 17 35  1  0  0  0  0
 17 36  1  0  0  0  0
 18 37  1  0  0  0  0
 18 38  1  0  0  0  0
 18 39  1  0  0  0  0
 19 40  1  0  0  0  0
 19 41  1  0  0  0  0
 19 42  1  0  0  0  0
 20 43  1  0  0  0  0
 20 44  1  0  0  0  0
 20 45  1  0  0  0  0
 21 46  1  0  0  0  0
 23 47  1  0  0  0  0
 23 48  1  0  0  0  0
 23 49  1  0  0  0  0
 24 50  1  0  0  0  0
 24 51  1  0  0  0  0
 24 52  1  0  0  0  0
 25 53  1  0  0  0  0
 25 54  1  0  0  0  0
 25 55  1  0  0  0  0
M  END
>  <Substance ID> (308)
308

>  <Mouse_Female_Canc> (308)
1

>  <SAL> (308)
1

>  <Rat_Male_Canc> (308)
1

>  <TD50_Rat> (308)
NP

>  <TD50_Mouse> (308)
NP

>  <Rat_Female_Canc> (308)
1

>  <Canc> (308)
1

>  <MolWeight> (308)
358.54

>  <Mouse_Male_Canc> (308)
1

>  <Mouse_Male_NTP> (308)
NE

>  <ChemName> (308)
4,4'-Thiobis(6-tert-Butyl-m-Cresol)

>  <Rat_Male_NTP> (308)
NE

>  <Reference> (308)
NTP435

>  <Formula> (308)
C22H30O2S

>  <SMILES> (308)
CC(C1=CC(=C(C=C1O)C)SC2=CC(=C(C=C2C)O)C(C)(C)C)(C)C

>  <Rat_Female_NTP> (308)
NE

>  <CAS> (308)
96-69-5

>  <Mouse_Female_NTP> (308)
NE

>  <Synonyms> (308)
1,1'-thiobis(2-methyl-4-hydroxy-5-tert-butylbenzene); 4,4'-thiobis(2-tert-butyl-5-methylphenol); 4,4'-thiobis(3-methyl-6-tert-butylphenol); 5-tert-Butyl-4-hydroxy-2-methylphenyl sulfide; 6,6'-Di-tert-butyl-4,4'-thiodi-m-cresol; bis(3-tert-butyl-4-hydroxy-6-methylphenyl) sulfide; Bis(4-Hydroxy-5-tert-Butyl-2-Methylphenyl) Sulfide; disperse mb-61; Santonox; santonox bm; santonox r; santowhite; sumilizer wx; sumilizer wx-r; thioalkofen bm4; thioalkofen bmch; thioalkofen mbch; thioalkophene bm-4.

$$$$
309


 30 32  0  0  0  0  0  0  0  0999 V2000
   32.1875  -72.6633   -0.0025 C   0  0  0  0  0  0  0  0  0  0  0  0
   32.2316  -74.0090   -0.0012 C   0  0  0  0  0  0  0  0  0  0  0  0
   33.4536  -74.6597   -0.0000 N   0  0  0  0  0  0  0  0  0  0  0  0
   33.4128  -71.9447   -0.0018 N   0  0  0  0  0  0  0  0  0  0  0  0
   34.5187  -72.5770   -0.0006 C   0  0  0  0  0  0  0  0  0  0  0  0
   34.5349  -74.0043    0.0000 C   0  0  0  0  0  0  0  0  0  0  0  0
   36.8458  -74.0122    0.0006 C   0  0  0  0  0  0  0  0  0  0  0  0
   36.8691  -72.5889   -0.0017 N   0  0  0  0  0  0  0  0  0  0  0  0
   35.7501  -74.6633    0.0014 N   0  0  0  0  0  0  0  0  0  0  0  0
   35.7979  -71.8974   -0.0010 C   0  0  0  0  0  0  0  0  0  0  0  0
   30.8955  -71.8963   -0.0004 C   0  0  0  0  0  0  0  0  0  0  0  0
   30.9164  -70.5631    0.0007 C   0  0  0  0  0  0  0  0  0  0  0  0
   28.4831  -70.4488    0.0005 C   0  0  0  0  0  0  0  0  0  0  0  0
   28.4547  -71.9023    0.0004 C   0  0  0  0  0  0  0  0  0  0  0  0
   29.6514  -69.8078    0.0009 C   0  0  0  0  0  0  0  0  0  0  0  0
   29.5942  -72.5834    0.0004 C   0  0  0  0  0  0  0  0  0  0  0  0
   35.8616  -70.5038   -0.0013 N   0  0  0  0  0  0  0  0  0  0  0  0
   38.0502  -74.7178    0.0030 N   0  0  0  0  0  0  0  0  0  0  0  0
   31.0891  -74.8040   -0.0007 N   0  0  0  0  0  0  0  0  0  0  0  0
   31.7899  -70.0763    0.0012 H   0  0  0  0  0  0  0  0  0  0  0  0
   27.6276  -69.9310    0.0003 H   0  0  0  0  0  0  0  0  0  0  0  0
   27.5801  -72.3872    0.0004 H   0  0  0  0  0  0  0  0  0  0  0  0
   29.6697  -68.8080    0.0014 H   0  0  0  0  0  0  0  0  0  0  0  0
   29.5678  -73.5830    0.0008 H   0  0  0  0  0  0  0  0  0  0  0  0
   36.7495  -70.0438   -0.0016 H   0  0  0  0  0  0  0  0  0  0  0  0
   35.0193  -69.9648   -0.0011 H   0  0  0  0  0  0  0  0  0  0  0  0
   38.0438  -75.7178    0.0046 H   0  0  0  0  0  0  0  0  0  0  0  0
   38.9194  -74.2234    0.0031 H   0  0  0  0  0  0  0  0  0  0  0  0
   31.1733  -75.8004    0.0003 H   0  0  0  0  0  0  0  0  0  0  0  0
   30.1841  -74.3787   -0.0013 H   0  0  0  0  0  0  0  0  0  0  0  0
  1  2  2  0  0  0  0
  1  4  1  0  0  0  0
  2  3  1  0  0  0  0
  3  6  2  0  0  0  0
  5  4  2  0  0  0  0
  5  6  1  0  0  0  0
  7  8  1  0  0  0  0
  5 10  1  0  0  0  0
  6  9  1  0  0  0  0
  9  7  2  0  0  0  0
  8 10  2  0  0  0  0
  1 11  1  0  0  0  0
 11 12  2  0  0  0  0
 13 14  1  0  0  0  0
 11 16  1  0  0  0  0
 12 15  1  0  0  0  0
 15 13  2  0  0  0  0
 14 16  2  0  0  0  0
 10 17  1  0  0  0  0
  7 18  1  0  0  0  0
  2 19  1  0  0  0  0
 12 20  1  0  0  0  0
 13 21  1  0  0  0  0
 14 22  1  0  0  0  0
 15 23  1  0  0  0  0
 16 24  1  0  0  0  0
 17 25  1  0  0  0  0
 17 26  1  0  0  0  0
 18 27  1  0  0  0  0
 18 28  1  0  0  0  0
 19 29  1  0  0  0  0
 19 30  1  0  0  0  0
M  END
>  <Substance ID> (309)
309

>  <Mouse_Female_Canc> (309)
3

>  <SAL> (309)
1

>  <Rat_Male_Canc> (309)
2

>  <TD50_Rat> (309)
NP

>  <TD50_Mouse> (309)
60.2

>  <Rat_Female_Canc> (309)
1

>  <Canc> (309)
3

>  <MolWeight> (309)
253.27

>  <Mouse_Male_Canc> (309)
3

>  <Mouse_Male_NTP> (309)
SE

>  <ChemName> (309)
Triamterene

>  <Rat_Male_NTP> (309)
EE

>  <Reference> (309)
NTP420

>  <Formula> (309)
C12H11N7

>  <SMILES> (309)
NC1=C2C(=NC(=N1)N)N=C(C(=N2)C3=CC=CC=C3)N

>  <Rat_Female_NTP> (309)
NE

>  <CAS> (309)
396-01-0

>  <Mouse_Female_NTP> (309)
SE

>  <Synonyms> (309)
2,4,7-triamino-6-phenylpteridine; 6-phenyl-2,4,7-Pteridinetriamine; 6-phenyl-2,4,7-triaminopteridine; ademine; Diren; Ditak; Dyazide; Dyren; Dyrenium; Dytac; jatropur; noridil; noridyl; pterofen; pterophene; skf 8542; taturil; teriam; teridin; triampur; TRIAMTERENE USP; triamteril; Triamterine; tri-span; triteren; urocaudal.

$$$$
310


 31 33  0  0  0  0  0  0  0  0999 V2000
   36.9715  -90.0586    0.1173 C   0  0  0  0  0  0  0  0  0  0  0  0
   37.3813  -90.9657    1.2431 N   0  0  0  0  0  0  0  0  0  0  0  0
   38.2498  -91.9949    0.7645 C   0  0  0  0  0  0  0  0  0  0  0  0
   38.5716  -91.7874   -0.5855 N   0  0  0  0  0  0  0  0  0  0  0  0
   37.8724  -90.6150   -0.9811 C   0  0  0  0  0  0  0  0  0  0  0  0
   35.5306  -90.3940   -0.2780 C   0  0  0  0  0  0  0  0  0  0  0  0
   34.7484  -89.5111   -0.9210 C   0  0  0  0  0  0  0  0  0  0  0  0
   32.9046  -91.0842   -1.0034 C   0  0  0  0  0  0  0  0  0  0  0  0
   33.7549  -92.0565   -0.3192 C   0  0  0  0  0  0  0  0  0  0  0  0
   33.3791  -89.8743   -1.2887 C   0  0  0  0  0  0  0  0  0  0  0  0
   34.9944  -91.7259    0.0237 C   0  0  0  0  0  0  0  0  0  0  0  0
   37.2592  -88.5688    0.3846 C   0  0  0  0  0  0  0  0  0  0  0  0
   38.4243  -88.0503   -0.0013 C   0  0  0  0  0  0  0  0  0  0  0  0
   37.8450  -85.8589    0.8638 C   0  0  0  0  0  0  0  0  0  0  0  0
   36.5670  -86.4161    1.3058 C   0  0  0  0  0  0  0  0  0  0  0  0
   38.7315  -86.6376    0.2461 C   0  0  0  0  0  0  0  0  0  0  0  0
   36.2866  -87.7000    1.0874 C   0  0  0  0  0  0  0  0  0  0  0  0
   37.9522  -90.1201   -2.1158 O   0  0  0  0  0  0  0  0  0  0  0  0
   38.6914  -92.9197    1.4588 O   0  0  0  0  0  0  0  0  0  0  0  0
   37.0877  -90.8635    2.1935 H   0  0  0  0  0  0  0  0  0  0  0  0
   39.1713  -92.3504   -1.1540 H   0  0  0  0  0  0  0  0  0  0  0  0
   35.1024  -88.6040   -1.1487 H   0  0  0  0  0  0  0  0  0  0  0  0
   31.9683  -91.3277   -1.2565 H   0  0  0  0  0  0  0  0  0  0  0  0
   33.4039  -92.9692   -0.1098 H   0  0  0  0  0  0  0  0  0  0  0  0
   32.7970  -89.2095   -1.7569 H   0  0  0  0  0  0  0  0  0  0  0  0
   35.5705  -92.3942    0.4943 H   0  0  0  0  0  0  0  0  0  0  0  0
   39.0954  -88.6296   -0.4639 H   0  0  0  0  0  0  0  0  0  0  0  0
   38.0530  -84.8942    1.0253 H   0  0  0  0  0  0  0  0  0  0  0  0
   35.9027  -85.8324    1.7727 H   0  0  0  0  0  0  0  0  0  0  0  0
   39.6083  -86.2584   -0.0496 H   0  0  0  0  0  0  0  0  0  0  0  0
   35.4154  -88.0791    1.3993 H   0  0  0  0  0  0  0  0  0  0  0  0
  1  2  1  0  0  0  0
  2  3  1  0  0  0  0
  3  4  1  0  0  0  0
  4  5  1  0  0  0  0
  1  5  1  0  0  0  0
  6  7  2  0  0  0  0
  8  9  1  0  0  0  0
  6 11  1  0  0  0  0
  7 10  1  0  0  0  0
 10  8  2  0  0  0  0
  9 11  2  0  0  0  0
  6  1  1  0  0  0  0
  1 12  1  0  0  0  0
 12 13  2  0  0  0  0
 14 15  1  0  0  0  0
 12 17  1  0  0  0  0
 13 16  1  0  0  0  0
 16 14  2  0  0  0  0
 15 17  2  0  0  0  0
  5 18  2  0  0  0  0
  3 19  2  0  0  0  0
  2 20  1  0  0  0  0
  4 21  1  0  0  0  0
  7 22  1  0  0  0  0
  8 23  1  0  0  0  0
  9 24  1  0  0  0  0
 10 25  1  0  0  0  0
 11 26  1  0  0  0  0
 13 27  1  0  0  0  0
 14 28  1  0  0  0  0
 15 29  1  0  0  0  0
 16 30  1  0  0  0  0
 17 31  1  0  0  0  0
M  END
>  <Substance ID> (310)
310

>  <Mouse_Female_Canc> (310)
3

>  <SAL> (310)
1

>  <Rat_Male_Canc> (310)
2

>  <TD50_Rat> (310)
NP

>  <TD50_Mouse> (310)
59.1

>  <Rat_Female_Canc> (310)
1

>  <Canc> (310)
3

>  <MolWeight> (310)
252.27

>  <Mouse_Male_Canc> (310)
1

>  <Mouse_Male_NTP> (310)
NE

>  <ChemName> (310)
5,5-Diphenylhydantoin

>  <Rat_Male_NTP> (310)
EE

>  <Reference> (310)
NTP404

>  <Formula> (310)
C15H12N2O2

>  <SMILES> (310)
O=C1C(C2=CC=CC=C2)(C3=CC=CC=C3)NC(=O)N1

>  <Rat_Female_NTP> (310)
NE

>  <CAS> (310)
57-41-0

>  <Mouse_Female_NTP> (310)
CE

>  <Synonyms> (310)
5,5-Diphenyl-2,4-Imidazolidinedione; di-phetine; ditoinate; causoin; citrullamon; citrulliamon; comital; comitoina; convul; danten; dantinal; dantoine; dantoinal; dantoinal klinos; Denyl; Ekko; elepsindon; enkelfel; epamin; epanutin; epasmir ''5''; epdantoine simple; epelin; epifenyl; epihydan; epilan; epilan-d; epilantin; epinat; epised; Eptal; eptoin; fenantoin; fenidantoin ''s''; fenitoina; fentoin; fenylepsin; fenytoine; gerot-epilan-d; Hidan; hidantal; hidantilo; hidantina; hidantina senosian; hidantina vitoria; hidantomin; hindatal; hydantal; hydantin; hydantoinal; Hydantol; ictalis simple; idantoil; idantoin; kessodanten; labopal; lehydan; lepitoin; lepsin; minetoin; neos-hidantoina; neosidantoina; novantoina; om hidantoina simple; om-hydantoine; oxylan; phanantin; phanatine; phenatine; phenatoine; phenhydan; phenitoin; phentoin; phenytoin; PHENYTOIN (5,5-DIPHENYLHYDANTOIN); ritmenal; saceril; sanepil; silantin; sodantoin; sodanton; solantin; solantoin; solantyl; sylantoic; tacosal; thilophenyl; TOIN; toin unicelles; zentronal; Zentropil; 5,5-diphenylimidazolidin-2,4-dione; aleviatin; antisacer; auranile; didan-tdc-250; difenin; difetoin; difhydan; dihycon; di-hydan; Dihydantoin; dilabid; Dilantin; dillantin; dintoin; dintoina; diphantoin; diphedal; diphedan; diphenin; diphentoin; diphentyn; Diphenylan; Diphenylhydantoin.

$$$$
311


 16 16  0  0  0  0  0  0  0  0999 V2000
    5.3531   -7.2799   -0.0116 C   0  0  0  0  0  0  0  0  0  0  0  0
    5.2880   -8.6055   -0.0210 C   0  0  0  0  0  0  0  0  0  0  0  0
    7.6933   -8.8426    0.0109 C   0  0  0  0  0  0  0  0  0  0  0  0
    7.8120   -7.3842    0.0210 C   0  0  0  0  0  0  0  0  0  0  0  0
    6.4950   -9.4167   -0.0092 C   0  0  0  0  0  0  0  0  0  0  0  0
    6.7271   -6.6048    0.0099 C   0  0  0  0  0  0  0  0  0  0  0  0
    9.3819   -6.6598    0.0462 Cl  0  0  0  0  0  0  0  0  0  0  0  0
    9.1158   -9.8281    0.0227 Cl  0  0  0  0  0  0  0  0  0  0  0  0
    6.3637  -11.1357   -0.0218 Cl  0  0  0  0  0  0  0  0  0  0  0  0
    3.8167   -6.4529   -0.0235 Cl  0  0  0  0  0  0  0  0  0  0  0  0
    3.7396   -9.3586   -0.0431 Cl  0  0  0  0  0  0  0  0  0  0  0  0
    6.9770   -5.1893    0.0190 O   0  0  0  0  0  0  0  0  0  0  0  0
    5.8486   -4.3216    0.0034 C   0  0  0  0  0  0  0  0  0  0  0  0
    6.1584   -3.3709    0.0118 H   0  0  0  0  0  0  0  0  0  0  0  0
    5.2833   -4.4946    0.8100 H   0  0  0  0  0  0  0  0  0  0  0  0
    5.3102   -4.4889   -0.8226 H   0  0  0  0  0  0  0  0  0  0  0  0
  1  2  2  0  0  0  0
  3  4  1  0  0  0  0
  1  6  1  0  0  0  0
  2  5  1  0  0  0  0
  5  3  2  0  0  0  0
  4  6  2  0  0  0  0
  4  7  1  0  0  0  0
  3  8  1  0  0  0  0
  5  9  1  0  0  0  0
  1 10  1  0  0  0  0
  2 11  1  0  0  0  0
  6 12  1  0  0  0  0
 12 13  1  0  0  0  0
 13 14  1  0  0  0  0
 13 15  1  0  0  0  0
 13 16  1  0  0  0  0
M  END
>  <Substance ID> (311)
311

>  <Mouse_Female_Canc> (311)
1

>  <SAL> (311)
3

>  <Rat_Male_Canc> (311)
3

>  <TD50_Rat> (311)
24.8

>  <TD50_Mouse> (311)
68

>  <Rat_Female_Canc> (311)
2

>  <Canc> (311)
3

>  <MolWeight> (311)
280.37

>  <Mouse_Male_Canc> (311)
3

>  <Mouse_Male_NTP> (311)
SE

>  <ChemName> (311)
Pentachloroanisole

>  <Rat_Male_NTP> (311)
SE

>  <Reference> (311)
NTP414

>  <Formula> (311)
C7H3Cl5O

>  <SMILES> (311)
ClC1=C(C(=C(C(=C1OC)Cl)Cl)Cl)Cl

>  <Rat_Female_NTP> (311)
EE

>  <CAS> (311)
1825-21-4

>  <Mouse_Female_NTP> (311)
NE

>  <Synonyms> (311)
2,3,4,5,6-Pentachloroanisole; Methyl pentachlorophenate; methyl pentachlorophenyl ester; PCP methyl ether; pentachloromethoxybenzene; Pentachlorophenol methyl ester; pentachlorophenyl methyl ether.

$$$$
312


  4  3  0  0  0  0  0  0  0  0999 V2000
    4.6155  -13.0728    0.0001 N   0  0  0  0  0  0  0  0  0  0  0  0
    6.0851  -12.2242    0.0001 Cl  0  0  0  0  0  0  0  0  0  0  0  0
    3.8551  -12.4234    0.0001 H   0  0  0  0  0  0  0  0  0  0  0  0
    4.5622  -13.6478    0.8165 H   0  0  0  0  0  0  0  0  0  0  0  0
  1  2  1  0  0  0  0
  1  3  1  0  0  0  0
  1  4  1  0  0  0  0
M  END
>  <Substance ID> (312)
312

>  <Mouse_Female_Canc> (312)
1

>  <SAL> (312)
ND

>  <Rat_Male_Canc> (312)
1

>  <TD50_Rat> (312)
NP

>  <TD50_Mouse> (312)
NP

>  <Rat_Female_Canc> (312)
2

>  <Canc> (312)
2

>  <MolWeight> (312)
51.48

>  <Mouse_Male_Canc> (312)
1

>  <Mouse_Male_NTP> (312)
NE

>  <ChemName> (312)
Chloramine

>  <Rat_Male_NTP> (312)
NE

>  <Reference> (312)
NTP392

>  <Formula> (312)
H2ClN

>  <SMILES> (312)
NCl

>  <Rat_Female_NTP> (312)
EE

>  <CAS> (312)
10599-90-3

>  <Mouse_Female_NTP> (312)
NE

>  <Synonyms> (312)
Chloramide; chloramine/chlorine; monochloramide; Monochloroamine; Monochloramine; monochloroammonia.

$$$$
313


  5  4  0  0  0  0  0  0  0  0999 V2000
    3.0548  -25.0735   -0.0002 C   0  0  0  0  0  0  0  0  0  0  0  0
    2.7211  -24.1308   -0.0001 H   0  0  0  0  0  0  0  0  0  0  0  0
    2.7211  -25.5448    0.8163 H   0  0  0  0  0  0  0  0  0  0  0  0
    4.9948  -25.0736   -0.0007 Br  0  0  0  0  0  0  0  0  0  0  0  0
    2.7208  -25.5448   -0.8165 H   0  0  0  0  0  0  0  0  0  0  0  0
  1  2  1  0  0  0  0
  1  3  1  0  0  0  0
  1  4  1  0  0  0  0
  1  5  1  0  0  0  0
M  END
>  <Substance ID> (313)
313

>  <Mouse_Female_Canc> (313)
1

>  <SAL> (313)
3

>  <Rat_Male_Canc> (313)
1

>  <TD50_Rat> (313)
NP

>  <TD50_Mouse> (313)
NP

>  <Rat_Female_Canc> (313)
1

>  <Canc> (313)
1

>  <MolWeight> (313)
94.94

>  <Mouse_Male_Canc> (313)
1

>  <Mouse_Male_NTP> (313)
NE

>  <ChemName> (313)
Methyl Bromide

>  <Rat_Male_NTP> (313)
ND

>  <Reference> (313)
NTP385 & CPDB

>  <Formula> (313)
CH3Br

>  <SMILES> (313)
CBr

>  <Rat_Female_NTP> (313)
ND

>  <CAS> (313)
74-83-9

>  <Mouse_Female_NTP> (313)
NE

>  <Synonyms> (313)
Metafume; Brom-O-Gas; Brom-O-Gaz; Brom-O-Sol; bromomethane; Bromomethane; Celfume; curafume; Dowfume; dowfume mc-2; dowfume mc-33; EDCO; embafume; Halon 1001; haltox; iscobrome; Kayafume; MB; MBX; MeBr; Meth-O-Gas; methogas; monobromomethane; profume; Rotox; terabol; Terr-O-Gas; terr-o-gas 100; Zytox.

$$$$
314


 17 17  0  0  0  0  0  0  0  0999 V2000
    2.8546  -35.3850   -0.0006 C   0  0  0  0  0  0  0  0  0  0  0  0
    2.8543  -36.7152    0.0001 C   0  0  0  0  0  0  0  0  0  0  0  0
    5.2753  -36.7820    0.0005 C   0  0  0  0  0  0  0  0  0  0  0  0
    5.2757  -35.3189   -0.0000 C   0  0  0  0  0  0  0  0  0  0  0  0
    4.1216  -37.4474    0.0001 C   0  0  0  0  0  0  0  0  0  0  0  0
    4.1230  -34.6527    0.0003 C   0  0  0  0  0  0  0  0  0  0  0  0
    4.1234  -33.1890    0.0001 C   0  0  0  0  0  0  0  0  0  0  0  0
    4.1214  -38.8443   -0.0000 N   0  3  0  0  0  0  0  0  0  0  0  0
    2.9732  -39.5059   -0.0004 O   0  5  0  0  0  0  0  0  0  0  0  0
    5.1396  -39.4318    0.0002 O   0  0  0  0  0  0  0  0  0  0  0  0
    5.1938  -32.5726   -0.0002 O   0  0  0  0  0  0  0  0  0  0  0  0
    2.9183  -32.4939    0.0000 O   0  0  0  0  0  0  0  0  0  0  0  0
    1.9887  -34.8849   -0.0017 H   0  0  0  0  0  0  0  0  0  0  0  0
    1.9881  -37.2150    0.0006 H   0  0  0  0  0  0  0  0  0  0  0  0
    6.1412  -37.2823    0.0011 H   0  0  0  0  0  0  0  0  0  0  0  0
    6.1419  -34.8191   -0.0006 H   0  0  0  0  0  0  0  0  0  0  0  0
    3.1001  -31.5106   -0.0000 H   0  0  0  0  0  0  0  0  0  0  0  0
  8  9  1  0  0  0  0
  8 10  2  0  0  0  0
  1  2  2  0  0  0  0
  3  4  1  0  0  0  0
  1  6  1  0  0  0  0
  2  5  1  0  0  0  0
  5  3  2  0  0  0  0
  4  6  2  0  0  0  0
  6  7  1  0  0  0  0
  7 11  2  0  0  0  0
  7 12  1  0  0  0  0
  5  8  1  0  0  0  0
  1 13  1  0  0  0  0
  2 14  1  0  0  0  0
  3 15  1  0  0  0  0
  4 16  1  0  0  0  0
 12 17  1  0  0  0  0
M  END
>  <Substance ID> (314)
314

>  <Mouse_Female_Canc> (314)
1

>  <SAL> (314)
3

>  <Rat_Male_Canc> (314)
1

>  <TD50_Rat> (314)
287

>  <TD50_Mouse> (314)
NP

>  <Rat_Female_Canc> (314)
3

>  <Canc> (314)
3

>  <MolWeight> (314)
167.12

>  <Mouse_Male_Canc> (314)
1

>  <Mouse_Male_NTP> (314)
NE

>  <ChemName> (314)
4-Nitrobenzoic acid

>  <Rat_Male_NTP> (314)
NE

>  <Reference> (314)
NTP442

>  <Formula> (314)
C7H5NO4

>  <SMILES> (314)
OC(=O)C1=CC=C(C=C1)[N+](=O)[O-]

>  <Rat_Female_NTP> (314)
SE

>  <CAS> (314)
62-23-7

>  <Mouse_Female_NTP> (314)
NE

>  <Synonyms> (314)
1-carboxy-4-nitrobenzene; p-nitrobenzenecarboxylic acid; 4-nitrodracylic acid; PNBA.

$$$$
315


 26 25  0  0  0  0  0  0  0  0999 V2000
    5.6280  -44.1987   -0.0466 P   0  0  0  0  0  0  0  0  0  0
    6.6457  -44.6696    0.6308 O   0  0  0  0  0  0  0  0  0  0
    6.2429  -42.8291   -0.5628 O   0  0  0  0  0  0  0  0  0  0
    4.2872  -44.2831    0.7911 O   0  0  0  0  0  0  0  0  0  0
    5.5627  -45.2038   -1.1949 O   0  0  0  0  0  0  0  0  0  0
    5.4711  -41.6110   -0.4872 C   0  0  0  0  0  0  0  0  0  0
    4.2299  -41.7062   -1.4011 C   0  0  0  0  0  0  0  0  0  0
    3.8201  -43.2750    1.6965 C   0  0  0  0  0  0  0  0  0  0
    2.3208  -43.5680    1.7830 C   0  0  0  0  0  0  0  0  0  0
    4.3272  -45.9724   -1.1704 C   0  0  0  0  0  0  0  0  0  0
    4.2693  -46.9975   -0.0072 C   0  0  0  0  0  0  0  0  0  0
    3.1496  -40.3558   -1.0298 Cl  0  0  0  0  0  0  0  0  0  0
    1.7179  -43.7067    0.1144 Cl  0  0  0  0  0  0  0  0  0  0
    2.6225  -47.6415    0.0935 Cl  0  0  0  0  0  0  0  0  0  0
    5.1752  -41.4660    0.4569 H   0  0  0  0  0  0  0  0  0  0
    6.0388  -40.8420   -0.7810 H   0  0  0  0  0  0  0  0  0  0
    4.5126  -41.6575   -2.3591 H   0  0  0  0  0  0  0  0  0  0
    3.7562  -42.5713   -1.2364 H   0  0  0  0  0  0  0  0  0  0
    4.2569  -43.3643    2.5917 H   0  0  0  0  0  0  0  0  0  0
    3.9878  -42.3586    1.3331 H   0  0  0  0  0  0  0  0  0  0
    2.1665  -44.4244    2.2757 H   0  0  0  0  0  0  0  0  0  0
    1.8523  -42.8218    2.2560 H   0  0  0  0  0  0  0  0  0  0
    3.5602  -45.3381   -1.0737 H   0  0  0  0  0  0  0  0  0  0
    4.2438  -46.4677   -2.0351 H   0  0  0  0  0  0  0  0  0  0
    4.9126  -47.7428   -0.1824 H   0  0  0  0  0  0  0  0  0  0
    4.5078  -46.5458    0.8524 H   0  0  0  0  0  0  0  0  0  0
  1  2  2  0  0  0
  1  3  1  0  0  0
  1  4  1  0  0  0
  1  5  1  0  0  0
  3  6  1  0  0  0
  6  7  1  0  0  0
  4  8  1  0  0  0
  8  9  1  0  0  0
  5 10  1  0  0  0
 10 11  1  0  0  0
  7 12  1  0  0  0
  9 13  1  0  0  0
 11 14  1  0  0  0
  6 15  1  0  0  0
  6 16  1  0  0  0
  7 17  1  0  0  0
  7 18  1  0  0  0
  8 19  1  0  0  0
  8 20  1  0  0  0
  9 21  1  0  0  0
  9 22  1  0  0  0
 10 23  1  0  0  0
 10 24  1  0  0  0
 11 25  1  0  0  0
 11 26  1  0  0  0
M  END
>  <Substance ID> (315)
315

>  <Mouse_Female_Canc> (315)
2

>  <SAL> (315)
1

>  <Rat_Male_Canc> (315)
3

>  <TD50_Rat> (315)
86.7

>  <TD50_Mouse> (315)
NP

>  <Rat_Female_Canc> (315)
3

>  <Canc> (315)
3

>  <MolWeight> (315)
285.49

>  <Mouse_Male_Canc> (315)
2

>  <Mouse_Male_NTP> (315)
EE

>  <ChemName> (315)
Tris(2-chloroethyl)phosphate

>  <Rat_Male_NTP> (315)
CE

>  <Reference> (315)
NTP391

>  <Formula> (315)
C6H12Cl3O4P

>  <SMILES> (315)
O=P(OCCCl)(OCCCl)OCCCl

>  <Rat_Female_NTP> (315)
CE

>  <CAS> (315)
115-96-8

>  <Mouse_Female_NTP> (315)
EE

>  <Synonyms> (315)
2-chloroethanol phosphate; 2-chloro-ethanol phosphate (3:1); 3CF; disflamoll tca; celluflex cef; fyrol cef; fyrol cf; genomoll p; niax 3cf; niax flame retardant 3cf; phosphoric acid, tris(2-chloroethyl)ester; TCEP; tris(2-chloroethyl) orthophosphate; tris(beta-chloroethyl) phosphate; tris(chloroethyl) phosphate.

$$$$
316


 53 56  0  0  0  0  0  0  0  0999 V2000
    6.5229  -48.0037    0.0021 C   0  0  0  0  0  0  0  0  0  0  0  0
    6.5165  -49.3312   -0.0015 C   0  0  0  0  0  0  0  0  0  0  0  0
    7.7932  -50.0901   -0.0040 C   0  0  0  0  0  0  0  0  0  0  0  0
    8.9514  -49.4223   -0.0027 C   0  0  0  0  0  0  0  0  0  0  0  0
    8.9323  -47.9448    0.0011 C   0  0  0  0  0  0  0  0  0  0  0  0
    7.7741  -47.2853    0.0034 C   0  0  0  0  0  0  0  0  0  0  0  0
   10.2159  -50.1008   -0.0040 N   0  0  0  0  0  0  0  0  0  0  0  0
   10.3149  -51.3148   -0.0031 N   0  0  0  0  0  0  0  0  0  0  0  0
   11.6025  -51.9861   -0.0029 C   0  0  0  0  0  0  0  0  0  0  0  0
    5.2904  -49.9784   -0.0009 N   0  3  0  0  0  0  0  0  0  0  0  0
   10.1369  -47.2401    0.0027 O   0  0  0  0  0  0  0  0  0  0  0  0
    9.9136  -45.8186    0.0075 C   0  0  0  0  0  0  0  0  0  0  0  0
   14.1425  -53.3689   -0.0029 C   0  0  0  0  0  0  0  0  0  0  0  0
   14.0984  -52.0347   -0.0025 C   0  0  0  0  0  0  0  0  0  0  0  0
   12.7660  -51.3083   -0.0034 C   0  0  0  0  0  0  0  0  0  0  0  0
   12.9104  -54.1454   -0.0016 C   0  0  0  0  0  0  0  0  0  0  0  0
   11.6310  -53.4512   -0.0009 C   0  0  0  0  0  0  0  0  0  0  0  0
   10.4947  -54.1462    0.0025 C   0  0  0  0  0  0  0  0  0  0  0  0
   10.5337  -55.6132    0.0049 C   0  0  0  0  0  0  0  0  0  0  0  0
   11.7052  -56.2479    0.0040 C   0  0  0  0  0  0  0  0  0  0  0  0
   12.9525  -55.4777    0.0008 C   0  0  0  0  0  0  0  0  0  0  0  0
   12.7516  -49.9200   -0.0038 O   0  0  0  0  0  0  0  0  0  0  0  0
   15.3891  -51.2696    0.0011 C   0  0  0  0  0  0  0  0  0  0  0  0
   16.6397  -51.9675    0.0019 N   0  0  0  0  0  0  0  0  0  0  0  0
   15.3716  -50.0362    0.0050 O   0  0  0  0  0  0  0  0  0  0  0  0
   17.9284  -51.3190    0.0010 C   0  0  0  0  0  0  0  0  0  0  0  0
   19.0278  -52.0745   -0.0070 C   0  0  0  0  0  0  0  0  0  0  0  0
   20.3585  -51.4547   -0.0131 C   0  0  0  0  0  0  0  0  0  0  0  0
   20.4778  -50.1296   -0.0119 C   0  0  0  0  0  0  0  0  0  0  0  0
   19.2851  -49.2855    0.0009 C   0  0  0  0  0  0  0  0  0  0  0  0
   18.0740  -49.8439    0.0069 C   0  0  0  0  0  0  0  0  0  0  0  0
   19.4249  -47.8937    0.0062 N   0  3  0  0  0  0  0  0  0  0  0  0
    4.1773  -49.2573    0.0019 O   0  5  0  0  0  0  0  0  0  0  0  0
    5.2318  -51.1494   -0.0021 O   0  0  0  0  0  0  0  0  0  0  0  0
   20.6356  -47.3546    0.0030 O   0  5  0  0  0  0  0  0  0  0  0  0
   18.4767  -47.2003    0.0126 O   0  0  0  0  0  0  0  0  0  0  0  0
    5.6587  -47.5005    0.0038 H   0  0  0  0  0  0  0  0  0  0  0  0
    7.7866  -51.0900   -0.0067 H   0  0  0  0  0  0  0  0  0  0  0  0
    7.7724  -46.2853    0.0060 H   0  0  0  0  0  0  0  0  0  0  0  0
   10.7930  -45.3426    0.0085 H   0  0  0  0  0  0  0  0  0  0  0  0
    9.3967  -45.5646    0.8250 H   0  0  0  0  0  0  0  0  0  0  0  0
    9.3958  -45.5593   -0.8078 H   0  0  0  0  0  0  0  0  0  0  0  0
   15.0259  -53.8374   -0.0040 H   0  0  0  0  0  0  0  0  0  0  0  0
    9.6160  -53.6689    0.0033 H   0  0  0  0  0  0  0  0  0  0  0  0
    9.6814  -56.1363    0.0073 H   0  0  0  0  0  0  0  0  0  0  0  0
   11.7335  -57.2475    0.0054 H   0  0  0  0  0  0  0  0  0  0  0  0
   13.8334  -55.9509    0.0003 H   0  0  0  0  0  0  0  0  0  0  0  0
   11.8055  -49.5960   -0.0043 H   0  0  0  0  0  0  0  0  0  0  0  0
   16.6183  -52.9673    0.0033 H   0  0  0  0  0  0  0  0  0  0  0  0
   18.9449  -53.0711   -0.0088 H   0  0  0  0  0  0  0  0  0  0  0  0
   21.1768  -52.0294   -0.0182 H   0  0  0  0  0  0  0  0  0  0  0  0
   21.3857  -49.7104   -0.0198 H   0  0  0  0  0  0  0  0  0  0  0  0
   17.2593  -49.2640    0.0153 H   0  0  0  0  0  0  0  0  0  0  0  0
  1  2  2  0  0  0  0
  2  3  1  0  0  0  0
  3  4  2  0  0  0  0
  4  5  1  0  0  0  0
  5  6  2  0  0  0  0
  6  1  1  0  0  0  0
  4  7  1  0  0  0  0
  7  8  2  0  0  0  0
  8  9  1  0  0  0  0
  2 10  1  0  0  0  0
  5 11  1  0  0  0  0
 11 12  1  0  0  0  0
  9 17  1  0  0  0  0
 16 13  1  0  0  0  0
 13 14  2  0  0  0  0
 14 15  1  0  0  0  0
 15  9  2  0  0  0  0
 16 17  1  0  0  0  0
 17 18  2  0  0  0  0
 18 19  1  0  0  0  0
 19 20  2  0  0  0  0
 20 21  1  0  0  0  0
 21 16  2  0  0  0  0
 15 22  1  0  0  0  0
 14 23  1  0  0  0  0
 23 24  1  0  0  0  0
 23 25  2  0  0  0  0
 24 26  1  0  0  0  0
 26 27  2  0  0  0  0
 27 28  1  0  0  0  0
 28 29  2  0  0  0  0
 29 30  1  0  0  0  0
 30 31  2  0  0  0  0
 31 26  1  0  0  0  0
 30 32  1  0  0  0  0
 10 33  1  0  0  0  0
 10 34  2  0  0  0  0
 32 35  1  0  0  0  0
 32 36  2  0  0  0  0
  1 37  1  0  0  0  0
  3 38  1  0  0  0  0
  6 39  1  0  0  0  0
 12 40  1  0  0  0  0
 12 41  1  0  0  0  0
 12 42  1  0  0  0  0
 13 43  1  0  0  0  0
 18 44  1  0  0  0  0
 19 45  1  0  0  0  0
 20 46  1  0  0  0  0
 21 47  1  0  0  0  0
 22 48  1  0  0  0  0
 24 49  1  0  0  0  0
 27 50  1  0  0  0  0
 28 51  1  0  0  0  0
 29 52  1  0  0  0  0
 31 53  1  0  0  0  0
M  END
>  <Substance ID> (316)
316

>  <Mouse_Female_Canc> (316)
1

>  <SAL> (316)
3

>  <Rat_Male_Canc> (316)
2

>  <TD50_Rat> (316)
NP

>  <TD50_Mouse> (316)
NP

>  <Rat_Female_Canc> (316)
1

>  <Canc> (316)
2

>  <MolWeight> (316)
487.43

>  <Mouse_Male_Canc> (316)
1

>  <Mouse_Male_NTP> (316)
NE

>  <ChemName> (316)
C.I. pigment red 23

>  <Rat_Male_NTP> (316)
EE

>  <Reference> (316)
NTP411

>  <Formula> (316)
C24H17N5O7

>  <SMILES> (316)
[O-][N+](=O)C1=CC=CC(=C1)NC(=O)C2=CC3=CC=CC=C3C(=C2O)/N=N/C4=CC(=CC=C4OC)[N+]([O-])=O

>  <Rat_Female_NTP> (316)
NE

>  <CAS> (316)
6471-49-4

>  <Mouse_Female_NTP> (316)
NE

>  <Synonyms> (316)
1-(2-Methoxy-5-nitrophenylazo)-2-hydroxy-3-(3-nitrophenylcarbamoyl)naphthalene; 3-Hydroxy-4-[(2-methoxy-5-nitrophenyl)azo]-3'-nitro-2-naphthanilide; 3-hydroxy-4-((2-methoxy-5-nitrophenyl)azo)-N-(3-nitrophenyl)-2-naphthalene carboxamide; alkali resistant red dark; Blue Shade Naphthol Red; calcotone 3b; carnation red toner b; C.I. 12355; C.I. Pigment Red 184 type; C.I. Pigment Red 245; conso red r-138; Fast Rose; fenalac red fkb extra; malta red x 2284; naphthol red b; naphthol red deep 10459; pigment red 23.

$$$$
317


 17 17  0  0  0  0  0  0  0  0999 V2000
    2.5454  -59.9311   -0.0004 C   0  0  0  0  0  0  0  0  0  0  0  0
    2.5414  -61.2630   -0.0001 C   0  0  0  0  0  0  0  0  0  0  0  0
    4.9628  -61.3365   -0.0001 C   0  0  0  0  0  0  0  0  0  0  0  0
    4.9672  -59.8723    0.0003 C   0  0  0  0  0  0  0  0  0  0  0  0
    3.8075  -61.9988   -0.0000 C   0  0  0  0  0  0  0  0  0  0  0  0
    3.8158  -59.2029    0.0001 C   0  0  0  0  0  0  0  0  0  0  0  0
    3.8201  -57.8122    0.0000 O   0  0  0  0  0  0  0  0  0  0  0  0
    3.8034  -63.3943   -0.0002 N   0  0  0  0  0  0  0  0  0  0  0  0
    6.1784  -59.1781    0.0007 N   0  0  0  0  0  0  0  0  0  0  0  0
    1.6809  -59.4285   -0.0008 H   0  0  0  0  0  0  0  0  0  0  0  0
    1.6740  -61.7605   -0.0000 H   0  0  0  0  0  0  0  0  0  0  0  0
    5.8273  -61.8391   -0.0003 H   0  0  0  0  0  0  0  0  0  0  0  0
    4.7637  -57.4814    0.0004 H   0  0  0  0  0  0  0  0  0  0  0  0
    4.6679  -63.8969   -0.0001 H   0  0  0  0  0  0  0  0  0  0  0  0
    2.9359  -63.8917   -0.0004 H   0  0  0  0  0  0  0  0  0  0  0  0
    6.1816  -58.1782    0.0009 H   0  0  0  0  0  0  0  0  0  0  0  0
    7.0428  -59.6808    0.0007 H   0  0  0  0  0  0  0  0  0  0  0  0
  1  2  2  0  0  0  0
  3  4  1  0  0  0  0
  1  6  1  0  0  0  0
  2  5  1  0  0  0  0
  5  3  2  0  0  0  0
  4  6  2  0  0  0  0
  6  7  1  0  0  0  0
  5  8  1  0  0  0  0
  4  9  1  0  0  0  0
  1 10  1  0  0  0  0
  2 11  1  0  0  0  0
  3 12  1  0  0  0  0
  7 13  1  0  0  0  0
  8 14  1  0  0  0  0
  8 15  1  0  0  0  0
  9 16  1  0  0  0  0
  9 17  1  0  0  0  0
M  END
>  <Substance ID> (317)
317

>  <Mouse_Female_Canc> (317)
1

>  <SAL> (317)
3

>  <Rat_Male_Canc> (317)
1

>  <TD50_Rat> (317)
NP

>  <TD50_Mouse> (317)
143

>  <Rat_Female_Canc> (317)
1

>  <Canc> (317)
3

>  <MolWeight> (317)
124.14

>  <Mouse_Male_Canc> (317)
3

>  <Mouse_Male_NTP> (317)
SE

>  <ChemName> (317)
2,4-Diaminophenol Dihydrochloride

>  <Rat_Male_NTP> (317)
NE

>  <Reference> (317)
NTP401

>  <Formula> (317)
C6H8N2O

>  <SMILES> (317)
C1(C(=CC=C(C=1)N)O)N

>  <Rat_Female_NTP> (317)
NE

>  <CAS> (317)
137-09-7

>  <Mouse_Female_NTP> (317)
NE

>  <Synonyms> (317)
2,4-diaminophenol hydrochloride; ACROL; Amidol.

$$$$
318


 17 18  0  0  0  0  0  0  0  0999 V2000
    2.5502  -77.1224    0.0000 C   0  0  0  0  0  0  0  0  0  0  0  0
    2.5444  -78.4523   -0.0005 C   0  0  0  0  0  0  0  0  0  0  0  0
    3.8087  -79.1888   -0.0004 C   0  0  0  0  0  0  0  0  0  0  0  0
    3.8192  -76.4019   -0.0002 C   0  0  0  0  0  0  0  0  0  0  0  0
    4.9689  -77.0734   -0.0001 C   0  0  0  0  0  0  0  0  0  0  0  0
    4.9695  -78.5338   -0.0000 C   0  0  0  0  0  0  0  0  0  0  0  0
    7.3536  -77.0393    0.0009 C   0  0  0  0  0  0  0  0  0  0  0  0
    6.1678  -79.2755    0.0015 O   0  0  0  0  0  0  0  0  0  0  0  0
    6.2173  -76.3570   -0.0004 C   0  0  0  0  0  0  0  0  0  0  0  0
    7.3569  -78.5087   -0.0003 C   0  0  0  0  0  0  0  0  0  0  0  0
    8.4433  -79.0988   -0.0009 O   0  0  0  0  0  0  0  0  0  0  0  0
    1.6871  -76.6173    0.0005 H   0  0  0  0  0  0  0  0  0  0  0  0
    1.6763  -78.9487   -0.0010 H   0  0  0  0  0  0  0  0  0  0  0  0
    3.8018  -80.1887   -0.0005 H   0  0  0  0  0  0  0  0  0  0  0  0
    3.8253  -75.4019   -0.0003 H   0  0  0  0  0  0  0  0  0  0  0  0
    8.2233  -76.5458    0.0029 H   0  0  0  0  0  0  0  0  0  0  0  0
    6.2272  -75.3571   -0.0017 H   0  0  0  0  0  0  0  0  0  0  0  0
  1  2  2  0  0  0  0
  1  4  1  0  0  0  0
  2  3  1  0  0  0  0
  3  6  2  0  0  0  0
  5  4  2  0  0  0  0
  5  6  1  0  0  0  0
 10  7  1  0  0  0  0
  5  9  1  0  0  0  0
  6  8  1  0  0  0  0
  7  9  2  0  0  0  0
  8 10  1  0  0  0  0
 10 11  2  0  0  0  0
  1 12  1  0  0  0  0
  2 13  1  0  0  0  0
  3 14  1  0  0  0  0
  4 15  1  0  0  0  0
  7 16  1  0  0  0  0
  9 17  1  0  0  0  0
M  END
>  <Substance ID> (318)
318

>  <Mouse_Female_Canc> (318)
3

>  <SAL> (318)
3

>  <Rat_Male_Canc> (318)
3

>  <TD50_Rat> (318)
13.9

>  <TD50_Mouse> (318)
103

>  <Rat_Female_Canc> (318)
2

>  <Canc> (318)
3

>  <MolWeight> (318)
146.15

>  <Mouse_Male_Canc> (318)
3

>  <Mouse_Male_NTP> (318)
SE

>  <ChemName> (318)
Coumarin

>  <Rat_Male_NTP> (318)
SE

>  <Reference> (318)
NTP422

>  <Formula> (318)
C9H6O2

>  <SMILES> (318)
O=C1OC2=C(C=CC=C2)C=C1

>  <Rat_Female_NTP> (318)
EE

>  <CAS> (318)
91-64-5

>  <Mouse_Female_NTP> (318)
CE

>  <Synonyms> (318)
1,2-Benzopyrone; o-coumaric acid lactone; 2H-1-Benzopyran-2-one; 2H-benzopyran-2-one; o-hydroxycinnamic acid delta-lactone; o-hydroxycinnamic acid lactone; o-hydroxycinnamic lactone; 2-oxo-1,2-benzopyran; 2-oxo-2H-1-benzopyran; Benzo-2-pyrone; benzo-alpha-pyrone; Benzopyran-2-one; Benzopyrone; cis-O-coumaric acid lactone; cis-O-coumarinic acid lactone; Coumaric Acid; coumarinac lactone; Coumarinic acid lactone; coumarinic anhydride; cumarin; CUMARINA; Propenoic acid, 3-(2-hydroxyphenyl)-, delta-lactone; rattex; Tonka Bean Camphor.

$$$$
319


 16 16  0  0  0  0  0  0  0  0999 V2000
    2.3550  -86.1836   -0.0012 C   0  0  0  0  0  0  0  0  0  0  0  0
    2.3607  -87.5150   -0.0005 C   0  0  0  0  0  0  0  0  0  0  0  0
    4.7823  -87.5707    0.0001 C   0  0  0  0  0  0  0  0  0  0  0  0
    4.7769  -86.1077    0.0002 C   0  0  0  0  0  0  0  0  0  0  0  0
    3.6315  -88.2407    0.0004 C   0  0  0  0  0  0  0  0  0  0  0  0
    3.6211  -85.4459    0.0001 C   0  0  0  0  0  0  0  0  0  0  0  0
    3.6160  -84.0491    0.0007 N   0  0  0  0  0  0  0  0  0  0  0  0
    3.6366  -89.6363    0.0007 N   0  3  0  0  0  0  0  0  0  0  0  0
    2.4918  -90.3034    0.0002 O   0  5  0  0  0  0  0  0  0  0  0  0
    4.6567  -90.2200    0.0006 O   0  0  0  0  0  0  0  0  0  0  0  0
    1.4869  -85.6872   -0.0026 H   0  0  0  0  0  0  0  0  0  0  0  0
    1.4969  -88.0189   -0.0006 H   0  0  0  0  0  0  0  0  0  0  0  0
    5.6501  -88.0676   -0.0002 H   0  0  0  0  0  0  0  0  0  0  0  0
    5.6411  -85.6046    0.0004 H   0  0  0  0  0  0  0  0  0  0  0  0
    4.4801  -83.5459    0.0016 H   0  0  0  0  0  0  0  0  0  0  0  0
    2.7481  -83.5522    0.0003 H   0  0  0  0  0  0  0  0  0  0  0  0
  1  2  2  0  0  0  0
  3  4  1  0  0  0  0
  1  6  1  0  0  0  0
  2  5  1  0  0  0  0
  5  3  2  0  0  0  0
  4  6  2  0  0  0  0
  6  7  1  0  0  0  0
  8  9  1  0  0  0  0
  8 10  2  0  0  0  0
  5  8  1  0  0  0  0
  1 11  1  0  0  0  0
  2 12  1  0  0  0  0
  3 13  1  0  0  0  0
  4 14  1  0  0  0  0
  7 15  1  0  0  0  0
  7 16  1  0  0  0  0
M  END
>  <Substance ID> (319)
319

>  <Mouse_Female_Canc> (319)
1

>  <SAL> (319)
3

>  <Rat_Male_Canc> (319)
1

>  <TD50_Rat> (319)
NP

>  <TD50_Mouse> (319)
NP

>  <Rat_Female_Canc> (319)
1

>  <Canc> (319)
2

>  <MolWeight> (319)
138.13

>  <Mouse_Male_Canc> (319)
2

>  <Mouse_Male_NTP> (319)
EE

>  <ChemName> (319)
4-Nitroaniline

>  <Rat_Male_NTP> (319)
ND

>  <Reference> (319)
NTP418 & CPDB

>  <Formula> (319)
C6H6N2O2

>  <SMILES> (319)
O=[N+](C1=CC=C(C=C1)N)[O-]

>  <Rat_Female_NTP> (319)
ND

>  <CAS> (319)
100-01-6

>  <Mouse_Female_NTP> (319)
NE

>  <Synonyms> (319)
1-amino-4-nitrobenzene; p-aminonitrobenzene; nitrazol cf extra; PNA; red 2g base; shinnippon fast red gg base; 4-Nitroanilene; 4-nitrobenzenamine; p-nitrophenylamine; azoamine red 2H; azofix red gg salt; azoic diazo component 37; diazo fast red gg; C.I. 37035; C.I. azoic diazo component 37; C.I. developer 17; developer P; devol red gg; fast red 2g salt; fast red 2g base; fast red salt 2j; fast red p salt; fast red p base; fast red base 2j; fast red base gg; fast red salt gg; fast red gg base; fast red mp base; naphtoelan red gg base.

$$$$
320


 18 18  0  0  0  0  0  0  0  0999 V2000
   31.2219   -8.0970   -0.0289 C   0  0  0  0  0  0  0  0  0  0  0  0
   31.3293   -9.4194   -0.0202 C   0  0  0  0  0  0  0  0  0  0  0  0
   33.7104   -9.2654    0.0139 C   0  0  0  0  0  0  0  0  0  0  0  0
   33.6453   -7.7874    0.0103 C   0  0  0  0  0  0  0  0  0  0  0  0
   32.6263  -10.0284    0.0003 C   0  0  0  0  0  0  0  0  0  0  0  0
   32.3952   -7.1990   -0.0172 C   0  0  0  0  0  0  0  0  0  0  0  0
   31.9802   -5.7837   -0.0420 O   0  0  0  0  0  0  0  0  0  0  0  0
   32.9334   -4.7344   -0.0605 C   0  0  0  0  0  0  0  0  0  0  0  0
   34.9836   -7.1941    0.0380 N   0  3  0  0  0  0  0  0  0  0  0  0
   36.0188   -8.0233   -0.0104 O   0  5  0  0  0  0  0  0  0  0  0  0
   35.2183   -6.0519    0.1153 O   0  0  0  0  0  0  0  0  0  0  0  0
   30.3082   -7.6909   -0.0441 H   0  0  0  0  0  0  0  0  0  0  0  0
   30.5077   -9.9893   -0.0278 H   0  0  0  0  0  0  0  0  0  0  0  0
   34.6078   -9.7064    0.0272 H   0  0  0  0  0  0  0  0  0  0  0  0
   32.7133  -11.0246    0.0042 H   0  0  0  0  0  0  0  0  0  0  0  0
   32.4601   -3.8537   -0.0759 H   0  0  0  0  0  0  0  0  0  0  0  0
   33.5066   -4.8185   -0.8756 H   0  0  0  0  0  0  0  0  0  0  0  0
   33.5068   -4.7898    0.7570 H   0  0  0  0  0  0  0  0  0  0  0  0
  1  2  2  0  0  0  0
  3  4  1  0  0  0  0
  1  6  1  0  0  0  0
  2  5  1  0  0  0  0
  5  3  2  0  0  0  0
  4  6  2  0  0  0  0
  6  7  1  0  0  0  0
  7  8  1  0  0  0  0
  9 10  1  0  0  0  0
  9 11  2  0  0  0  0
  4  9  1  0  0  0  0
  1 12  1  0  0  0  0
  2 13  1  0  0  0  0
  3 14  1  0  0  0  0
  5 15  1  0  0  0  0
  8 16  1  0  0  0  0
  8 17  1  0  0  0  0
  8 18  1  0  0  0  0
M  END
>  <Substance ID> (320)
320

>  <Mouse_Female_Canc> (320)
3

>  <SAL> (320)
3

>  <Rat_Male_Canc> (320)
3

>  <TD50_Rat> (320)
15.6

>  <TD50_Mouse> (320)
178

>  <Rat_Female_Canc> (320)
3

>  <Canc> (320)
3

>  <MolWeight> (320)
153.14

>  <Mouse_Male_Canc> (320)
3

>  <Mouse_Male_NTP> (320)
CE

>  <ChemName> (320)
ortho-NITROANISOLE

>  <Rat_Male_NTP> (320)
CE

>  <Reference> (320)
NTP416

>  <Formula> (320)
C7H7NO3

>  <SMILES> (320)
COC1=C(C=CC=C1)[N+](=O)[O-]

>  <Rat_Female_NTP> (320)
CE

>  <CAS> (320)
91-23-6

>  <Mouse_Female_NTP> (320)
SE

>  <Synonyms> (320)
1-methoxy-2-nitrobenzene; 2-methoxynitrobenzene; 2-Nitroanisole; o-nitrophenyl methyl ether.

$$$$
321


  7  6  0  0  0  0  0  0  0  0999 V2000
   29.9201  -17.8536   -0.0012 C   0  0  0  0  0  0  0  0  0  0  0  0
   31.2434  -17.1441    0.0003 C   0  0  0  0  0  0  0  0  0  0  0  0
   32.2940  -17.7956    0.0006 O   0  0  0  0  0  0  0  0  0  0  0  0
   29.1805  -17.1806   -0.0012 H   0  0  0  0  0  0  0  0  0  0  0  0
   29.8480  -18.4274    0.8147 H   0  0  0  0  0  0  0  0  0  0  0  0
   29.8491  -18.4260   -0.8181 H   0  0  0  0  0  0  0  0  0  0  0  0
   31.2748  -16.1446    0.0012 H   0  0  0  0  0  0  0  0  0  0  0  0
  1  2  1  0  0  0  0
  2  3  2  0  0  0  0
  1  4  1  0  0  0  0
  1  5  1  0  0  0  0
  1  6  1  0  0  0  0
  2  7  1  0  0  0  0
M  END
>  <Substance ID> (321)
321

>  <Mouse_Female_Canc> (321)
ND

>  <SAL> (321)
1

>  <Rat_Male_Canc> (321)
3

>  <TD50_Rat> (321)
153

>  <TD50_Mouse> (321)
ND

>  <Rat_Female_Canc> (321)
3

>  <Canc> (321)
3

>  <MolWeight> (321)
44.05

>  <Mouse_Male_Canc> (321)
ND

>  <Mouse_Male_NTP> (321)
ND

>  <ChemName> (321)
Acetaldehyde

>  <Rat_Male_NTP> (321)
ND

>  <Reference> (321)
CPDB

>  <Formula> (321)
C2H4O

>  <SMILES> (321)
CC=O

>  <Rat_Female_NTP> (321)
ND

>  <CAS> (321)
75-07-0

>  <Mouse_Female_NTP> (321)
ND

>  <Synonyms> (321)
Aceteldehyde; Acetic aldehyde; acetylaldehyde; Aldehyde; Aldehyde C(2); ethanal; Ethyl aldehyde.

$$$$
322


 15 14  0  0  0  0  0  0  0  0999 V2000
   20.2594  -18.0222   -0.0218 C   0  0  0  0  0  0  0  0  0  0  0  0
   21.5266  -17.2160    0.0251 C   0  0  0  0  0  0  0  0  0  0  0  0
   22.6565  -17.7964   -0.0361 N   0  0  0  0  0  0  0  0  0  0  0  0
   23.7887  -17.0849    0.0052 N   0  0  0  0  0  0  0  0  0  0  0  0
   25.0199  -17.7361   -0.0645 C   0  0  0  0  0  0  0  0  0  0  0  0
   26.0652  -17.0785   -0.0283 O   0  0  0  0  0  0  0  0  0  0  0  0
   23.7479  -15.6498    0.1206 C   0  0  0  0  0  0  0  0  0  0  0  0
   19.4715  -17.4093    0.0374 H   0  0  0  0  0  0  0  0  0  0  0  0
   20.2420  -18.6618    0.7467 H   0  0  0  0  0  0  0  0  0  0  0  0
   20.2202  -18.5327   -0.8808 H   0  0  0  0  0  0  0  0  0  0  0  0
   21.4813  -16.2202    0.1048 H   0  0  0  0  0  0  0  0  0  0  0  0
   25.0566  -18.7323   -0.1435 H   0  0  0  0  0  0  0  0  0  0  0  0
   24.6805  -15.2895    0.1366 H   0  0  0  0  0  0  0  0  0  0  0  0
   23.2786  -15.3961    0.9665 H   0  0  0  0  0  0  0  0  0  0  0  0
   23.2561  -15.2659   -0.6609 H   0  0  0  0  0  0  0  0  0  0  0  0
  1  2  1  0  0  0  0
  2  3  2  0  0  0  0
  3  4  1  0  0  0  0
  4  5  1  0  0  0  0
  5  6  2  0  0  0  0
  4  7  1  0  0  0  0
  1  8  1  0  0  0  0
  1  9  1  0  0  0  0
  1 10  1  0  0  0  0
  2 11  1  0  0  0  0
  5 12  1  0  0  0  0
  7 13  1  0  0  0  0
  7 14  1  0  0  0  0
  7 15  1  0  0  0  0
M  END
>  <Substance ID> (322)
322

>  <Mouse_Female_Canc> (322)
3

>  <SAL> (322)
1

>  <Rat_Male_Canc> (322)
ND

>  <TD50_Rat> (322)
ND

>  <TD50_Mouse> (322)
2.51

>  <Rat_Female_Canc> (322)
ND

>  <Canc> (322)
3

>  <MolWeight> (322)
100.12

>  <Mouse_Male_Canc> (322)
3

>  <Mouse_Male_NTP> (322)
ND

>  <ChemName> (322)
Acetaldehyde methylformylhydrazone

>  <Rat_Male_NTP> (322)
ND

>  <Reference> (322)
CPDB

>  <Formula> (322)
C4H8N2O

>  <SMILES> (322)
CC=NN(C)C=O

>  <Rat_Female_NTP> (322)
ND

>  <CAS> (322)
16568-02-8

>  <Mouse_Female_NTP> (322)
ND

>  <Synonyms> (322)
Gyromitrin.

$$$$
323


  9  8  0  0  0  0  0  0  0  0999 V2000
   30.4321  -47.8716   -0.0004 C   0  0  0  0  0  0  0  0  0  0  0  0
   31.5823  -46.9065   -0.0004 C   0  0  0  0  0  0  0  0  0  0  0  0
   32.7440  -47.3293   -0.0004 O   0  0  0  0  0  0  0  0  0  0  0  0
   31.3399  -45.5311   -0.0002 N   0  0  0  0  0  0  0  0  0  0  0  0
   29.5705  -47.3641   -0.0004 H   0  0  0  0  0  0  0  0  0  0  0  0
   30.4793  -48.4472    0.8160 H   0  0  0  0  0  0  0  0  0  0  0  0
   30.4793  -48.4472   -0.8168 H   0  0  0  0  0  0  0  0  0  0  0  0
   32.1059  -44.8884   -0.0002 H   0  0  0  0  0  0  0  0  0  0  0  0
   30.4002  -45.1891   -0.0002 H   0  0  0  0  0  0  0  0  0  0  0  0
  1  2  1  0  0  0  0
  2  3  2  0  0  0  0
  2  4  1  0  0  0  0
  1  5  1  0  0  0  0
  1  6  1  0  0  0  0
  1  7  1  0  0  0  0
  4  8  1  0  0  0  0
  4  9  1  0  0  0  0
M  END
>  <Substance ID> (323)
323

>  <Mouse_Female_Canc> (323)
1

>  <SAL> (323)
1

>  <Rat_Male_Canc> (323)
3

>  <TD50_Rat> (323)
180

>  <TD50_Mouse> (323)
3010

>  <Rat_Female_Canc> (323)
3

>  <Canc> (323)
3

>  <MolWeight> (323)
59.07

>  <Mouse_Male_Canc> (323)
3

>  <Mouse_Male_NTP> (323)
ND

>  <ChemName> (323)
Acetamide

>  <Rat_Male_NTP> (323)
ND

>  <Reference> (323)
CPDB

>  <Formula> (323)
C2H5NO

>  <SMILES> (323)
CC(=O)N

>  <Rat_Female_NTP> (323)
ND

>  <CAS> (323)
60-35-5

>  <Mouse_Female_NTP> (323)
ND

>  <Synonyms> (323)
Acetic acid amide; Acetimidic Acid; Ethanamide; Methanecarboxamide.

$$$$
324


 20 20  0  0  0  0  0  0  0  0999 V2000
    4.9235  -72.2392    0.0237 C   0  0  0  0  0  0  0  0  0  0  0  0
    6.2405  -72.4319    0.0632 C   0  0  0  0  0  0  0  0  0  0  0  0
    6.6429  -70.0520    0.0114 C   0  0  0  0  0  0  0  0  0  0  0  0
    5.2077  -69.8357   -0.0280 C   0  0  0  0  0  0  0  0  0  0  0  0
    7.1472  -71.2859    0.0531 C   0  0  0  0  0  0  0  0  0  0  0  0
    4.3840  -70.8785   -0.0248 C   0  0  0  0  0  0  0  0  0  0  0  0
    3.0122  -70.6751   -0.0676 O   0  0  0  0  0  0  0  0  0  0  0  0
    8.5432  -71.5137    0.0807 N   0  0  0  0  0  0  0  0  0  0  0  0
    9.5063  -70.4780   -0.0102 C   0  0  0  0  0  0  0  0  0  0  0  0
    9.1782  -69.2924   -0.1300 O   0  0  0  0  0  0  0  0  0  0  0  0
   10.9610  -70.8248    0.0273 C   0  0  0  0  0  0  0  0  0  0  0  0
    4.3029  -73.0234    0.0270 H   0  0  0  0  0  0  0  0  0  0  0  0
    6.6091  -73.3608    0.0999 H   0  0  0  0  0  0  0  0  0  0  0  0
    7.2610  -69.2659    0.0073 H   0  0  0  0  0  0  0  0  0  0  0  0
    4.8407  -68.9060   -0.0573 H   0  0  0  0  0  0  0  0  0  0  0  0
    2.8209  -69.6941   -0.0971 H   0  0  0  0  0  0  0  0  0  0  0  0
    8.8675  -72.4555    0.1690 H   0  0  0  0  0  0  0  0  0  0  0  0
   11.5054  -69.9893   -0.0469 H   0  0  0  0  0  0  0  0  0  0  0  0
   11.1789  -71.4330   -0.7360 H   0  0  0  0  0  0  0  0  0  0  0  0
   11.1725  -71.2843    0.8900 H   0  0  0  0  0  0  0  0  0  0  0  0
  1  2  2  0  0  0  0
  3  4  1  0  0  0  0
  1  6  1  0  0  0  0
  2  5  1  0  0  0  0
  5  3  2  0  0  0  0
  4  6  2  0  0  0  0
  6  7  1  0  0  0  0
  5  8  1  0  0  0  0
  8  9  1  0  0  0  0
  9 10  2  0  0  0  0
  9 11  1  0  0  0  0
  1 12  1  0  0  0  0
  2 13  1  0  0  0  0
  3 14  1  0  0  0  0
  4 15  1  0  0  0  0
  7 16  1  0  0  0  0
  8 17  1  0  0  0  0
 11 18  1  0  0  0  0
 11 19  1  0  0  0  0
 11 20  1  0  0  0  0
M  END
>  <Substance ID> (324)
324

>  <Mouse_Female_Canc> (324)
1

>  <SAL> (324)
1

>  <Rat_Male_Canc> (324)
1

>  <TD50_Rat> (324)
NP

>  <TD50_Mouse> (324)
NP

>  <Rat_Female_Canc> (324)
2

>  <Canc> (324)
2

>  <MolWeight> (324)
151.16

>  <Mouse_Male_Canc> (324)
1

>  <Mouse_Male_NTP> (324)
NE

>  <ChemName> (324)
Acetaminophen

>  <Rat_Male_NTP> (324)
NE

>  <Reference> (324)
NTP394

>  <Formula> (324)
C8H9NO2

>  <SMILES> (324)
C1(=CC=C(C=C1)O)NC(C)=O

>  <Rat_Female_NTP> (324)
EE

>  <CAS> (324)
103-90-2

>  <Mouse_Female_NTP> (324)
NE

>  <Synonyms> (324)
4-Acetamidophenol; p-Acetaminophenol; Apap; Arthralgen; Bancap; Ben-u-ron; Dial-a-gesic; Bickie-mol; Dirox; Disprol; Calpol; Calpol infant; Capital; Cetadol; clixodyne; Dafalgan; Darvocet-n; datril; Doliprane; Dolprone; Dristan; Dularin; Dymadon; Elixodyne; Enelfa; Eneril; Exdol; Febrilix; febro-gesic; febrolin; fendon; Finimal; G 1; Gelocatil; Hedex; Homoolan; janupap; Korum; lestemp; Liqiprine; liquagesic; Liquiprin; lonarid; Lyteca; lyteca syrup; Momentum; multin; N-(4-Hydroxyphenyl)acetamide; N-Acetyl-4-aminophenol; NAPA; napafen; Napap; Naprinol; Nobedon; Pacemo; Paldesic; Panadol; Panaleve; Panets; Panex; Panofen; Parmol; pedric; Percogesic; Phenaphen; phendon; Proxyphene/Acetamine; pyrinazine; Salzone; Sinutab; sk-apap; Tabalgin; Tapar; Temlo; tempanal; Tempra; Tralgon; tussapap; Tylenol; Valadol; Valgesic; p-Acetylaminophenol; paracetamol; p-Hydroxyacetanilide; 4'-Hydroxyacetanilide; Parapan; Paraspen; Abensanil; Acamol; Acetagesic; Acetalgin; Acetaminofen; algotropyl; Alpiny; alpinyl; alvedon; Amadil; Anacin-3; Anaflon; anelix; Anhiba; Anuphen; apadon; Apamide.

$$$$
325


 28 29  0  0  0  0  0  0  0  0999 V2000
   47.3609  -60.2156    0.0089 C   0  0  0  0  0  0  0  0  0  0  0  0
   47.3376  -61.5415    0.0602 C   0  0  0  0  0  0  0  0  0  0  0  0
   48.6956  -61.9738    0.0630 C   0  0  0  0  0  0  0  0  0  0  0  0
   49.4480  -60.8801    0.0145 C   0  0  0  0  0  0  0  0  0  0  0  0
   48.6837  -59.6774   -0.0242 O   0  0  0  0  0  0  0  0  0  0  0  0
   46.1949  -59.4387   -0.0108 N   0  3  0  0  0  0  0  0  0  0  0  0
   46.2730  -58.1200   -0.0692 O   0  5  0  0  0  0  0  0  0  0  0  0
   45.1443  -59.9648    0.0232 O   0  0  0  0  0  0  0  0  0  0  0  0
   51.7347  -59.8718   -0.0422 C   0  0  0  0  0  0  0  0  0  0  0  0
   50.9246  -60.9340    0.0029 C   0  0  0  0  0  0  0  0  0  0  0  0
   51.8307  -62.4111    0.0466 S   0  0  0  0  0  0  0  0  0  0  0  0
   53.3250  -61.5128    0.0042 C   0  0  0  0  0  0  0  0  0  0  0  0
   53.1377  -60.2474   -0.0392 N   0  0  0  0  0  0  0  0  0  0  0  0
   54.5959  -62.1134    0.0179 N   0  0  0  0  0  0  0  0  0  0  0  0
   55.6918  -61.3535    0.0134 N   0  0  0  0  0  0  0  0  0  0  0  0
   56.8503  -61.8814   -0.0118 C   0  0  0  0  0  0  0  0  0  0  0  0
   58.0704  -61.0045   -0.0123 C   0  0  0  0  0  0  0  0  0  0  0  0
   57.0048  -63.3765   -0.0419 C   0  0  0  0  0  0  0  0  0  0  0  0
   46.5253  -62.1240    0.0908 H   0  0  0  0  0  0  0  0  0  0  0  0
   49.0199  -62.9192    0.0953 H   0  0  0  0  0  0  0  0  0  0  0  0
   51.4115  -58.9260   -0.0742 H   0  0  0  0  0  0  0  0  0  0  0  0
   54.6782  -63.1100    0.0309 H   0  0  0  0  0  0  0  0  0  0  0  0
   58.8914  -61.5749   -0.0337 H   0  0  0  0  0  0  0  0  0  0  0  0
   58.0775  -60.4419    0.8144 H   0  0  0  0  0  0  0  0  0  0  0  0
   58.0555  -60.4122   -0.8179 H   0  0  0  0  0  0  0  0  0  0  0  0
   57.9766  -63.6114   -0.0591 H   0  0  0  0  0  0  0  0  0  0  0  0
   56.5595  -63.7417   -0.8595 H   0  0  0  0  0  0  0  0  0  0  0  0
   56.5811  -63.7723    0.7729 H   0  0  0  0  0  0  0  0  0  0  0  0
  1  2  2  0  0  0  0
  3  4  2  0  0  0  0
  4  5  1  0  0  0  0
  5  1  1  0  0  0  0
  2  3  1  0  0  0  0
  6  7  1  0  0  0  0
  6  8  2  0  0  0  0
  1  6  1  0  0  0  0
  9 10  2  0  0  0  0
 10 11  1  0  0  0  0
 11 12  1  0  0  0  0
 12 13  2  0  0  0  0
  9 13  1  0  0  0  0
 12 14  1  0  0  0  0
 14 15  1  0  0  0  0
 15 16  2  0  0  0  0
 16 17  1  0  0  0  0
 16 18  1  0  0  0  0
  4 10  1  0  0  0  0
  2 19  1  0  0  0  0
  3 20  1  0  0  0  0
  9 21  1  0  0  0  0
 14 22  1  0  0  0  0
 17 23  1  0  0  0  0
 17 24  1  0  0  0  0
 17 25  1  0  0  0  0
 18 26  1  0  0  0  0
 18 27  1  0  0  0  0
 18 28  1  0  0  0  0
M  END
>  <Substance ID> (325)
325

>  <Mouse_Female_Canc> (325)
ND

>  <SAL> (325)
ND

>  <Rat_Male_Canc> (325)
ND

>  <TD50_Rat> (325)
6.05

>  <TD50_Mouse> (325)
ND

>  <Rat_Female_Canc> (325)
3

>  <Canc> (325)
3

>  <MolWeight> (325)
266.27

>  <Mouse_Male_Canc> (325)
ND

>  <Mouse_Male_NTP> (325)
ND

>  <ChemName> (325)
Acetone [4-(5-nitro-2-furyl)-2-thiazolyl]hydrazone

>  <Rat_Male_NTP> (325)
ND

>  <Reference> (325)
CPDB

>  <Formula> (325)
C10H10N4O3S

>  <SMILES> (325)
C(/C)(C)=N\NC1=NC=C(S1)C2=CC=C(O2)[N+](=O)[O-]

>  <Rat_Female_NTP> (325)
ND

>  <CAS> (325)
18523-69-8

>  <Mouse_Female_NTP> (325)
ND

>  <Synonyms> (325)
-

$$$$
326


 12 11  0  0  0  0  0  0  0  0999 V2000
   29.6823  -70.5049    0.0027 C   0  0  0  0  0  0  0  0  0  0  0  0
   28.6536  -69.4145    0.0841 C   0  0  0  0  0  0  0  0  0  0  0  0
   29.2494  -71.9333   -0.1649 C   0  0  0  0  0  0  0  0  0  0  0  0
   30.9186  -70.2181    0.0754 N   0  0  0  0  0  0  0  0  0  0  0  0
   31.8291  -71.1786    0.0032 O   0  0  0  0  0  0  0  0  0  0  0  0
   29.1107  -68.5319    0.1942 H   0  0  0  0  0  0  0  0  0  0  0  0
   28.0541  -69.5789    0.8674 H   0  0  0  0  0  0  0  0  0  0  0  0
   28.1098  -69.4053   -0.7552 H   0  0  0  0  0  0  0  0  0  0  0  0
   30.0552  -72.5243   -0.2005 H   0  0  0  0  0  0  0  0  0  0  0  0
   28.7301  -72.0272   -1.0144 H   0  0  0  0  0  0  0  0  0  0  0  0
   28.6744  -72.2007    0.6082 H   0  0  0  0  0  0  0  0  0  0  0  0
   32.7426  -70.7787    0.0770 H   0  0  0  0  0  0  0  0  0  0  0  0
  1  2  1  0  0  0  0
  1  3  1  0  0  0  0
  1  4  2  0  0  0  0
  4  5  1  0  0  0  0
  2  6  1  0  0  0  0
  2  7  1  0  0  0  0
  2  8  1  0  0  0  0
  3  9  1  0  0  0  0
  3 10  1  0  0  0  0
  3 11  1  0  0  0  0
  5 12  1  0  0  0  0
M  END
>  <Substance ID> (326)
326

>  <Mouse_Female_Canc> (326)
ND

>  <SAL> (326)
ND

>  <Rat_Male_Canc> (326)
3

>  <TD50_Rat> (326)
12.1

>  <TD50_Mouse> (326)
ND

>  <Rat_Female_Canc> (326)
1

>  <Canc> (326)
3

>  <MolWeight> (326)
73.09

>  <Mouse_Male_Canc> (326)
ND

>  <Mouse_Male_NTP> (326)
ND

>  <ChemName> (326)
Acetoxime

>  <Rat_Male_NTP> (326)
ND

>  <Reference> (326)
CPDB

>  <Formula> (326)
C3H7NO

>  <SMILES> (326)
CC(=NO)C

>  <Rat_Female_NTP> (326)
ND

>  <CAS> (326)
127-06-0

>  <Mouse_Female_NTP> (326)
ND

>  <Synonyms> (326)
2-Propanone oxime; Acetone Oxime.

$$$$
327
 

 30 31  0  0  0  0  0  0  0  0999 V2000
   17.3459  -15.3707   -0.0032 C   0  0  0  0  0  0  0  0  0  1  0  0
   16.1916  -16.0491    0.0014 C   0  0  0  0  0  0  0  0  0  2  0  0
   16.2118  -17.5380    0.0032 C   0  0  0  0  0  0  0  0  0  3  0  0
   17.3671  -18.2067    0.0003 C   0  0  0  0  0  0  0  0  0  4  0  0
   18.5981  -17.4465   -0.0030 C   0  0  0  0  0  0  0  0  0  5  0  0
   18.5975  -16.1446   -0.0042 C   0  0  0  0  0  0  0  0  0  6  0  0
   19.9669  -15.5908   -0.0090 C   0  0  0  0  0  0  0  0  0  7  0  0
   20.8275  -16.8091    0.0185 O   0  0  0  0  0  0  0  0  0  8  0  0
   19.9593  -18.0149   -0.0075 C   0  0  0  0  0  0  0  0  0  9  0  0
   14.8427  -15.3435    0.0042 C   0  0  0  0  0  0  0  0  0 10  0  0
   14.9348  -13.8350    0.0004 C   0  0  0  0  0  0  0  0  0 11  0  0
   13.8005  -13.1260    0.0004 C   0  0  0  0  0  0  0  0  0 12  0  0
   13.8188  -11.7272   -0.0030 O   0  0  0  0  0  0  0  0  0 13  0  0
   12.5078  -11.2242    0.0003 C   0  0  0  0  0  0  0  0  0 14  0  0
   12.2700   -9.7385    0.0010 C   0  0  0  0  0  0  0  0  0 15  0  0
   11.5441  -11.9990    0.0023 O   0  0  0  0  0  0  0  0  0 16  0  0
   17.3572  -14.3707   -0.0057 H   0  0  0  0  0  0  0  0  0  0  0  0
   15.3489  -18.0434    0.0067 H   0  0  0  0  0  0  0  0  0  0  0  0
   17.3814  -19.2066    0.0004 H   0  0  0  0  0  0  0  0  0  0  0  0
   20.1333  -15.0530   -0.8355 H   0  0  0  0  0  0  0  0  0  0  0  0
   20.1260  -15.0213    0.7975 H   0  0  0  0  0  0  0  0  0  0  0  0
   20.1128  -18.5852    0.7994 H   0  0  0  0  0  0  0  0  0  0  0  0
   20.1200  -18.5551   -0.8336 H   0  0  0  0  0  0  0  0  0  0  0  0
   14.3374  -15.6291   -0.8100 H   0  0  0  0  0  0  0  0  0  0  0  0
   14.3429  -15.6253    0.8232 H   0  0  0  0  0  0  0  0  0  0  0  0
   15.8238  -13.3772   -0.0021 H   0  0  0  0  0  0  0  0  0  0  0  0
   12.9227  -13.6050    0.0028 H   0  0  0  0  0  0  0  0  0  0  0  0
   11.2865   -9.5578    0.0035 H   0  0  0  0  0  0  0  0  0  0  0  0
   12.6807   -9.3343   -0.8163 H   0  0  0  0  0  0  0  0  0  0  0  0
   12.6847   -9.3345    0.8165 H   0  0  0  0  0  0  0  0  0  0  0  0
  1  2  2  0  0  0  0
  1  6  1  0  0  0  0
  2  3  1  0  0  0  0
  2 10  1  0  0  0  0
  3  4  2  0  0  0  0
  4  5  1  0  0  0  0
  5  6  2  0  0  0  0
  5  9  1  0  0  0  0
  6  7  1  0  0  0  0
  7  8  1  0  0  0  0
  8  9  1  0  0  0  0
 10 11  1  0  0  0  0
 11 12  2  0  0  0  0
 12 13  1  0  0  0  0
 13 14  1  0  0  0  0
 14 15  1  0  0  0  0
 14 16  2  0  0  0  0
  1 17  1  0  0  0  0
  3 18  1  0  0  0  0
  4 19  1  0  0  0  0
  7 20  1  0  0  0  0
  7 21  1  0  0  0  0
  9 22  1  0  0  0  0
  9 23  1  0  0  0  0
 10 24  1  0  0  0  0
 10 25  1  0  0  0  0
 11 26  1  0  0  0  0
 12 27  1  0  0  0  0
 15 28  1  0  0  0  0
 15 29  1  0  0  0  0
 15 30  1  0  0  0  0
M  END
>  <Substance ID> (327)
327

>  <Mouse_Female_Canc> (327)
ND

>  <SAL> (327)
3

>  <Rat_Male_Canc> (327)
3

>  <TD50_Rat> (327)
25

>  <TD50_Mouse> (327)
NP

>  <Rat_Female_Canc> (327)
ND

>  <Canc> (327)
3

>  <MolWeight> (327)
218.25

>  <Mouse_Male_Canc> (327)
1

>  <Mouse_Male_NTP> (327)
ND

>  <ChemName> (327)
1'-Acetoxysafrole

>  <Rat_Male_NTP> (327)
ND

>  <Reference> (327)
CPDB

>  <Formula> (327)
C13H14O3

>  <SMILES> (327)
C1=C(C=CC2=C1COC2)CC=COC(C)=O

>  <Rat_Female_NTP> (327)
ND

>  <CAS> (327)
34627-78-6

>  <Mouse_Female_NTP> (327)
ND

>  <Synonyms> (327)
-

$$$$
328


 25 25  0  0  0  0  0  0  0  0999 V2000
   28.7814  -91.2183    0.0933 C   0  0  0  0  0  0  0  0  0  0  0  0
   30.0824  -90.9334    0.0637 C   0  0  0  0  0  0  0  0  0  0  0  0
   30.5245  -89.5402   -0.0365 C   0  0  0  0  0  0  0  0  0  0  0  0
   29.6252  -88.5579   -0.0992 C   0  0  0  0  0  0  0  0  0  0  0  0
   28.1974  -88.8708   -0.0658 C   0  0  0  0  0  0  0  0  0  0  0  0
   27.7941  -90.1356    0.0263 C   0  0  0  0  0  0  0  0  0  0  0  0
   31.8824  -89.2335   -0.0649 N   0  0  0  0  0  0  0  0  0  0  0  0
   32.7899  -90.1984    0.0153 N   0  0  0  0  0  0  0  0  0  0  0  0
   34.1435  -89.8648    0.0008 C   0  0  0  0  0  0  0  0  0  0  0  0
   34.4823  -88.6805   -0.0953 O   0  0  0  0  0  0  0  0  0  0  0  0
   35.1865  -90.9396    0.1032 C   0  0  0  0  0  0  0  0  0  0  0  0
   26.3286  -90.4507    0.0627 C   0  0  0  0  0  0  0  0  0  0  0  0
   25.5838  -89.2321   -0.0040 O   0  0  0  0  0  0  0  0  0  0  0  0
   28.4783  -92.1688    0.1611 H   0  0  0  0  0  0  0  0  0  0  0  0
   30.7569  -91.6702    0.1099 H   0  0  0  0  0  0  0  0  0  0  0  0
   29.9272  -87.6072   -0.1690 H   0  0  0  0  0  0  0  0  0  0  0  0
   27.5232  -88.1336   -0.1123 H   0  0  0  0  0  0  0  0  0  0  0  0
   32.1754  -88.2809   -0.1461 H   0  0  0  0  0  0  0  0  0  0  0  0
   32.5059  -91.1547    0.0853 H   0  0  0  0  0  0  0  0  0  0  0  0
   36.0962  -90.5254    0.0772 H   0  0  0  0  0  0  0  0  0  0  0  0
   35.0878  -91.5746   -0.6630 H   0  0  0  0  0  0  0  0  0  0  0  0
   35.0711  -91.4358    0.9638 H   0  0  0  0  0  0  0  0  0  0  0  0
   26.0918  -91.0303   -0.7171 H   0  0  0  0  0  0  0  0  0  0  0  0
   26.1106  -90.9296    0.9130 H   0  0  0  0  0  0  0  0  0  0  0  0
   24.6054  -89.4371    0.0200 H   0  0  0  0  0  0  0  0  0  0  0  0
  1  2  2  0  0  0  0
  1  6  1  0  0  0  0
  2  3  1  0  0  0  0
  3  4  2  0  0  0  0
  4  5  1  0  0  0  0
  5  6  2  0  0  0  0
  3  7  1  0  0  0  0
  7  8  1  0  0  0  0
  8  9  1  0  0  0  0
  9 10  2  0  0  0  0
  9 11  1  0  0  0  0
  6 12  1  0  0  0  0
 12 13  1  0  0  0  0
  1 14  1  0  0  0  0
  2 15  1  0  0  0  0
  4 16  1  0  0  0  0
  5 17  1  0  0  0  0
  7 18  1  0  0  0  0
  8 19  1  0  0  0  0
 11 20  1  0  0  0  0
 11 21  1  0  0  0  0
 11 22  1  0  0  0  0
 12 23  1  0  0  0  0
 12 24  1  0  0  0  0
 13 25  1  0  0  0  0
M  END
>  <Substance ID> (328)
328

>  <Mouse_Female_Canc> (328)
3

>  <SAL> (328)
3

>  <Rat_Male_Canc> (328)
ND

>  <TD50_Rat> (328)
ND

>  <TD50_Mouse> (328)
241

>  <Rat_Female_Canc> (328)
ND

>  <Canc> (328)
3

>  <MolWeight> (328)
180.21

>  <Mouse_Male_Canc> (328)
3

>  <Mouse_Male_NTP> (328)
ND

>  <ChemName> (328)
N'-acetyl-4-(hydroxymethyl)phenylhydrazine

>  <Rat_Male_NTP> (328)
ND

>  <Reference> (328)
CPDB

>  <Formula> (328)
C9H12N2O2

>  <SMILES> (328)
N(NC(C)=O)C1=CC=C(C=C1)CO

>  <Rat_Female_NTP> (328)
ND

>  <CAS> (328)
65734-38-5

>  <Mouse_Female_NTP> (328)
ND

>  <Synonyms> (328)
-

$$$$
329


 29 30  0  0  0  0  0  0  0  0999 V2000
    4.2188   -3.8522   -0.0079 C   0  0  0  0  0  0  0  0  0  0  0  0
    5.5474   -3.9153    0.0149 C   0  0  0  0  0  0  0  0  0  0  0  0
    5.7404   -1.5004   -0.0359 C   0  0  0  0  0  0  0  0  0  0  0  0
    4.2737   -1.4310   -0.0585 C   0  0  0  0  0  0  0  0  0  0  0  0
    6.3443   -2.6874   -0.0003 C   0  0  0  0  0  0  0  0  0  0  0  0
    3.5513   -2.5510   -0.0458 C   0  0  0  0  0  0  0  0  0  0  0  0
    7.8001   -2.7885    0.0217 C   0  0  0  0  0  0  0  0  0  0  0  0
    8.3599   -3.9939    0.0733 C   0  0  0  0  0  0  0  0  0  0  0  0
   10.5889   -3.0577    0.0558 C   0  0  0  0  0  0  0  0  0  0  0  0
    9.9696   -1.7182   -0.0015 C   0  0  0  0  0  0  0  0  0  0  0  0
    9.8088   -4.1339    0.0935 C   0  0  0  0  0  0  0  0  0  0  0  0
    8.6428   -1.5908   -0.0152 C   0  0  0  0  0  0  0  0  0  0  0  0
   11.9930   -3.2482    0.0720 N   0  0  0  0  0  0  0  0  0  0  0  0
   12.9425   -2.2096   -0.0277 C   0  0  0  0  0  0  0  0  0  0  0  0
   12.6035   -1.0298   -0.1655 O   0  0  0  0  0  0  0  0  0  0  0  0
   14.4021   -2.5509    0.0272 C   0  0  0  0  0  0  0  0  0  0  0  0
    3.6773   -4.6929    0.0008 H   0  0  0  0  0  0  0  0  0  0  0  0
    6.0035   -4.8048    0.0425 H   0  0  0  0  0  0  0  0  0  0  0  0
    6.2833   -0.6607   -0.0471 H   0  0  0  0  0  0  0  0  0  0  0  0
    3.8163   -0.5421   -0.0834 H   0  0  0  0  0  0  0  0  0  0  0  0
    2.5526   -2.5019   -0.0623 H   0  0  0  0  0  0  0  0  0  0  0  0
    7.7817   -4.8094    0.0985 H   0  0  0  0  0  0  0  0  0  0  0  0
   10.5483   -0.9031   -0.0302 H   0  0  0  0  0  0  0  0  0  0  0  0
   10.2197   -5.0446    0.1359 H   0  0  0  0  0  0  0  0  0  0  0  0
    8.2251   -0.6829   -0.0504 H   0  0  0  0  0  0  0  0  0  0  0  0
   12.3345   -4.1839    0.1602 H   0  0  0  0  0  0  0  0  0  0  0  0
   14.9439   -1.7145   -0.0558 H   0  0  0  0  0  0  0  0  0  0  0  0
   14.6286   -3.1702   -0.7246 H   0  0  0  0  0  0  0  0  0  0  0  0
   14.6083   -2.9959    0.8987 H   0  0  0  0  0  0  0  0  0  0  0  0
  1  2  2  0  0  0  0
  3  4  1  0  0  0  0
  1  6  1  0  0  0  0
  2  5  1  0  0  0  0
  5  3  2  0  0  0  0
  4  6  2  0  0  0  0
  5  7  1  0  0  0  0
  7  8  2  0  0  0  0
  9 10  1  0  0  0  0
  7 12  1  0  0  0  0
  8 11  1  0  0  0  0
 11  9  2  0  0  0  0
 10 12  2  0  0  0  0
  9 13  1  0  0  0  0
 13 14  1  0  0  0  0
 14 15  2  0  0  0  0
 14 16  1  0  0  0  0
  1 17  1  0  0  0  0
  2 18  1  0  0  0  0
  3 19  1  0  0  0  0
  4 20  1  0  0  0  0
  6 21  1  0  0  0  0
  8 22  1  0  0  0  0
 10 23  1  0  0  0  0
 11 24  1  0  0  0  0
 12 25  1  0  0  0  0
 13 26  1  0  0  0  0
 16 27  1  0  0  0  0
 16 28  1  0  0  0  0
 16 29  1  0  0  0  0
M  END
>  <Substance ID> (329)
329

>  <Mouse_Female_Canc> (329)
ND

>  <SAL> (329)
3

>  <Rat_Male_Canc> (329)
ND

>  <TD50_Rat> (329)
1.18

>  <TD50_Mouse> (329)
ND

>  <Rat_Female_Canc> (329)
3

>  <Canc> (329)
3

>  <MolWeight> (329)
211.26

>  <Mouse_Male_Canc> (329)
ND

>  <Mouse_Male_NTP> (329)
ND

>  <ChemName> (329)
4-Acetylaminobiphenyl

>  <Rat_Male_NTP> (329)
ND

>  <Reference> (329)
CPDB

>  <Formula> (329)
C14H13NO

>  <SMILES> (329)
CC(=O)NC1=CC=C(C=C1)C2=CC=CC=C2

>  <Rat_Female_NTP> (329)
ND

>  <CAS> (329)
4075-79-0

>  <Mouse_Female_NTP> (329)
ND

>  <Synonyms> (329)
4'-Phenylacetanilide; Acetamide, N-[1,1'-biphenyl]-4-yl-.

$$$$
330


 22 22  0  0  0  0  0  0  0  0999 V2000
    2.5273  -11.3709   -0.3805 C   0  0  0  0  0  0  0  0  0  0  0  0
    3.0073  -12.6126   -0.3375 C   0  0  0  0  0  0  0  0  0  0  0  0
    5.1276  -11.7572    0.3904 C   0  0  0  0  0  0  0  0  0  0  0  0
    4.5533  -10.4292    0.3336 C   0  0  0  0  0  0  0  0  0  0  0  0
    4.3828  -12.8055    0.0663 C   0  0  0  0  0  0  0  0  0  0  0  0
    3.3440  -10.2701   -0.0326 N   0  0  0  0  0  0  0  0  0  0  0  0
    4.9948  -14.1012    0.0890 C   0  0  0  0  0  0  0  0  0  0  0  0
    4.3829  -15.1213   -0.2478 O   0  0  0  0  0  0  0  0  0  0  0  0
    6.3173  -14.1297    0.4320 N   0  0  0  0  0  0  0  0  0  0  0  0
    7.1173  -15.0807    0.0589 N   0  0  0  0  0  0  0  0  0  0  0  0
    8.4396  -14.7056   -0.0526 C   0  0  0  0  0  0  0  0  0  0  0  0
    8.7615  -13.5609    0.2894 O   0  0  0  0  0  0  0  0  0  0  0  0
    9.4641  -15.6424   -0.6107 C   0  0  0  0  0  0  0  0  0  0  0  0
    1.5803  -11.2156   -0.6614 H   0  0  0  0  0  0  0  0  0  0  0  0
    2.4304  -13.3930   -0.5787 H   0  0  0  0  0  0  0  0  0  0  0  0
    6.0789  -11.8829    0.6720 H   0  0  0  0  0  0  0  0  0  0  0  0
    5.1077   -9.6350    0.5824 H   0  0  0  0  0  0  0  0  0  0  0  0
    6.6833  -13.3876    0.9935 H   0  0  0  0  0  0  0  0  0  0  0  0
    6.8008  -16.0098   -0.1322 H   0  0  0  0  0  0  0  0  0  0  0  0
   10.3589  -15.1961   -0.6121 H   0  0  0  0  0  0  0  0  0  0  0  0
    9.2145  -15.8908   -1.5467 H   0  0  0  0  0  0  0  0  0  0  0  0
    9.5045  -16.4673   -0.0468 H   0  0  0  0  0  0  0  0  0  0  0  0
  1  2  2  0  0  0  0
  3  4  1  0  0  0  0
  1  6  1  0  0  0  0
  2  5  1  0  0  0  0
  5  3  2  0  0  0  0
  4  6  2  0  0  0  0
  5  7  1  0  0  0  0
  7  8  2  0  0  0  0
  7  9  1  0  0  0  0
  9 10  1  0  0  0  0
 10 11  1  0  0  0  0
 11 12  2  0  0  0  0
 11 13  1  0  0  0  0
  1 14  1  0  0  0  0
  2 15  1  0  0  0  0
  3 16  1  0  0  0  0
  4 17  1  0  0  0  0
  9 18  1  0  0  0  0
 10 19  1  0  0  0  0
 13 20  1  0  0  0  0
 13 21  1  0  0  0  0
 13 22  1  0  0  0  0
M  END
>  <Substance ID> (330)
330

>  <Mouse_Female_Canc> (330)
3

>  <SAL> (330)
ND

>  <Rat_Male_Canc> (330)
ND

>  <TD50_Rat> (330)
ND

>  <TD50_Mouse> (330)
330

>  <Rat_Female_Canc> (330)
ND

>  <Canc> (330)
3

>  <MolWeight> (330)
179.18

>  <Mouse_Male_Canc> (330)
3

>  <Mouse_Male_NTP> (330)
ND

>  <ChemName> (330)
1-Acetyl-2-isonicotinoylhydrazine

>  <Rat_Male_NTP> (330)
ND

>  <Reference> (330)
CPDB

>  <Formula> (330)
C8H9N3O2

>  <SMILES> (330)
N(NC(C)=O)C(C1=CC=NC=C1)=O

>  <Rat_Female_NTP> (330)
ND

>  <CAS> (330)
1078-38-2

>  <Mouse_Female_NTP> (330)
ND

>  <Synonyms> (330)
N'-Acetylisonicotinohydrazide.

$$$$
331


 21 21  0  0  0  0  0  0  0  0999 V2000
    8.2738  -26.1789   -0.0806 C   0  0  0  0  0  0  0  0  0  0
    9.5585  -26.5290   -0.1126 C   0  0  0  0  0  0  0  0  0  0
   10.2623  -24.2155    0.0566 C   0  0  0  0  0  0  0  0  0  0
    8.8494  -23.8307    0.0919 C   0  0  0  0  0  0  0  0  0  0
   10.6003  -25.5004   -0.0410 C   0  0  0  0  0  0  0  0  0  0
    7.9027  -24.7659    0.0263 C   0  0  0  0  0  0  0  0  0  0
    6.5603  -24.3986    0.0585 N   0  0  0  0  0  0  0  0  0  0
    5.6157  -25.3280   -0.0174 N   0  0  0  0  0  0  0  0  0  0
    4.2745  -24.9502    0.0050 C   0  0  0  0  0  0  0  0  0  0
    3.9742  -23.7554    0.1015 O   0  0  0  0  0  0  0  0  0  0
    3.1974  -25.9916   -0.0892 C   0  0  0  0  0  0  0  0  0  0
    7.5628  -26.8804   -0.1297 H   0  0  0  0  0  0  0  0  0  0
    9.8122  -27.4936   -0.1855 H   0  0  0  0  0  0  0  0  0  0
   10.9731  -23.5138    0.1056 H   0  0  0  0  0  0  0  0  0  0
    8.5954  -22.8662    0.1652 H   0  0  0  0  0  0  0  0  0  0
   11.5649  -25.7631   -0.0653 H   0  0  0  0  0  0  0  0  0  0
    6.3076  -23.4344    0.1387 H   0  0  0  0  0  0  0  0  0  0
    5.8650  -26.2937   -0.0902 H   0  0  0  0  0  0  0  0  0  0
    2.3014  -25.5487   -0.0583 H   0  0  0  0  0  0  0  0  0  0
    3.2806  -26.6282    0.6775 H   0  0  0  0  0  0  0  0  0  0
    3.2917  -26.4924   -0.9496 H   0  0  0  0  0  0  0  0  0  0
  1  2  2  0  0  0
  3  4  1  0  0  0
  1  6  1  0  0  0
  2  5  1  0  0  0
  5  3  2  0  0  0
  4  6  2  0  0  0
  6  7  1  0  0  0
  7  8  1  0  0  0
  8  9  1  0  0  0
  9 10  2  0  0  0
  9 11  1  0  0  0
  1 12  1  0  0  0
  2 13  1  0  0  0
  3 14  1  0  0  0
  4 15  1  0  0  0
  5 16  1  0  0  0
  7 17  1  0  0  0
  8 18  1  0  0  0
 11 19  1  0  0  0
 11 20  1  0  0  0
 11 21  1  0  0  0
M  END
>  <Substance ID> (331)
331

>  <Mouse_Female_Canc> (331)
3

>  <SAL> (331)
3

>  <Rat_Male_Canc> (331)
ND

>  <TD50_Rat> (331)
ND

>  <TD50_Mouse> (331)
51.2

>  <Rat_Female_Canc> (331)
ND

>  <Canc> (331)
3

>  <MolWeight> (331)
150.18

>  <Mouse_Male_Canc> (331)
3

>  <Mouse_Male_NTP> (331)
ND

>  <ChemName> (331)
1-acetyl-2-phenylhydrazine

>  <Rat_Male_NTP> (331)
ND

>  <Reference> (331)
CPDB

>  <Formula> (331)
C8H10N2O

>  <SMILES> (331)
C1(NNC(C)=O)=CC=CC=C1

>  <Rat_Female_NTP> (331)
ND

>  <CAS> (331)
114-83-0

>  <Mouse_Female_NTP> (331)
ND

>  <Synonyms> (331)
2-Phenylacetohydrazide; acetic acid 2-phenylhydrazide; acetic acid phenylhydrazide; acetylphenylhydrazine; APH; beta-acetylphenylhydrazine; hydracetin; N-Acetyl-N'-phenylhydrazine; N'-phenylacethydrazide; pyrodine.

$$$$
332


176182  0  0  0  0  0  0  0  0999 V2000
    1.5335    2.8762    0.6064 C   0  0  0  0  0  0  0  0  0  1  0  0
    1.7059   -0.2488    3.2659 C   0  0  0  0  0  0  0  0  0  2  0  0
    2.7870    3.4646    0.0127 C   0  0  3  0  0  0  0  0  0  3  0  0
    0.5133    3.5233    0.6226 O   0  0  0  0  0  0  0  0  0  4  0  0
    2.0462   -1.3705    3.9602 N   0  0  3  0  0  0  0  0  0  5  0  0
    2.2715    0.8018    3.4831 O   0  0  0  0  0  0  0  0  0  6  0  0
    3.7393    3.7515    1.1145 N   0  0  3  0  0  0  0  0  0  7  0  0
    3.4134    2.4644   -0.9609 C   0  0  3  0  0  0  0  0  0  8  0  0
    3.1317   -1.2122    4.9527 C   0  0  3  0  0  0  0  0  0  9  0  0
    4.9343    3.0897    1.0160 C   0  0  0  0  0  0  0  0  0 10  0  0
    3.4272    4.6665    2.2153 C   0  0  0  0  0  0  0  0  0 11  0  0
    3.6171    1.1232   -0.2535 C   0  0  0  0  0  0  0  0  0 12  0  0
    2.4851    2.2719   -2.1618 C   0  0  0  0  0  0  0  0  0 13  0  0
    4.2540   -0.4383    4.3096 C   0  0  0  0  0  0  0  0  0 14  0  0
    2.6093   -0.4468    6.1702 C   0  0  3  0  0  0  0  0  0 15  0  0
    5.9667    3.2925    2.0951 C   0  0  0  0  0  0  0  0  0 16  0  0
    5.1574    2.3539    0.0780 O   0  0  0  0  0  0  0  0  0 17  0  0
    5.4755   -0.4108    4.8803 N   0  0  3  0  0  0  0  0  0 18  0  0
    4.0576    0.1620    3.2742 O   0  0  0  0  0  0  0  0  0 19  0  0
    3.4146   -0.8469    7.4081 C   0  0  0  0  0  0  0  0  0 20  0  0
    2.7575    1.0568    5.9294 C   0  0  0  0  0  0  0  0  0 21  0  0
    6.4547    1.9687    2.5359 N   0  0  3  0  0  0  0  0  0 22  0  0
    6.6448    0.2924    4.3434 C   0  0  3  0  0  0  0  0  0 23  0  0
    5.8559   -1.0695    6.1340 C   0  0  0  0  0  0  0  0  0 24  0  0
    6.2264    1.6507    3.8420 C   0  0  0  0  0  0  0  0  0 25  0  0
    7.1426    1.0521    1.6232 C   0  0  0  0  0  0  0  0  0 26  0  0
    7.6640    0.4410    5.4746 C   0  0  0  0  0  0  0  0  0 27  0  0
    7.1474   -0.4174    6.6305 C   0  0  0  0  0  0  0  0  0 28  0  0
    5.6955    2.4468    4.5872 O   0  0  0  0  0  0  0  0  0 29  0  0
    1.5455    1.6327    1.1123 O   0  0  0  0  0  0  0  0  0 30  0  0
    0.3320    1.0730    1.6810 C   0  0  3  0  0  0  0  0  0 31  0  0
   -0.7459    0.9880    0.5984 C   0  0  0  0  0  0  0  0  0 32  0  0
    0.6194   -0.3277    2.2250 C   0  0  3  0  0  0  0  0  0 33  0  0
    0.1493   -3.8399    8.3913 C   0  0  0  0  0  0  0  0  0 34  0  0
   -2.4000   -6.3108    6.2378 C   0  0  0  0  0  0  0  0  0 35  0  0
   -0.3587   -3.2345    9.6725 C   0  0  3  0  0  0  0  0  0 36  0  0
    1.2020   -3.4668    7.9286 O   0  0  0  0  0  0  0  0  0 37  0  0
   -3.6486   -6.2700    5.6903 N   0  0  3  0  0  0  0  0  0 38  0  0
   -2.1834   -6.9577    7.2365 O   0  0  0  0  0  0  0  0  0 39  0  0
   -0.7402   -4.3268   10.6038 N   0  0  3  0  0  0  0  0  0 40  0  0
    0.7489   -2.3938   10.3104 C   0  0  3  0  0  0  0  0  0 41  0  0
   -4.6953   -7.1341    6.2764 C   0  0  3  0  0  0  0  0  0 42  0  0
   -2.0877   -4.5162   10.7175 C   0  0  0  0  0  0  0  0  0 43  0  0
    0.2757   -5.1151   11.3049 C   0  0  0  0  0  0  0  0  0 44  0  0
    0.3216   -1.9703   11.7172 C   0  0  0  0  0  0  0  0  0 45  0  0
    2.0330   -3.2214   10.3948 C   0  0  0  0  0  0  0  0  0 46  0  0
   -4.8084   -6.8363    7.7477 C   0  0  0  0  0  0  0  0  0 47  0  0
   -6.0192   -6.8293    5.5693 C   0  0  3  0  0  0  0  0  0 48  0  0
   -2.6670   -5.4901   11.6983 C   0  0  0  0  0  0  0  0  0 49  0  0
   -2.8504   -3.8888    9.9938 O   0  0  0  0  0  0  0  0  0 50  0  0
   -5.4152   -7.6737    8.6005 N   0  0  3  0  0  0  0  0  0 51  0  0
   -4.3319   -5.7908    8.1684 O   0  0  0  0  0  0  0  0  0 52  0  0
   -6.3639   -5.3494    5.7479 C   0  0  0  0  0  0  0  0  0 53  0  0
   -5.8856   -7.1454    4.0783 C   0  0  0  0  0  0  0  0  0 54  0  0
   -3.1220   -6.7115   10.9949 N   0  0  3  0  0  0  0  0  0 55  0  0
   -5.0947   -7.9078   10.0138 C   0  0  3  0  0  0  0  0  0 56  0  0
   -6.5818   -8.5167    8.2897 C   0  0  0  0  0  0  0  0  0 57  0  0
   -4.4325   -6.7226   10.6391 C   0  0  0  0  0  0  0  0  0 58  0  0
   -2.1941   -7.8080   10.7127 C   0  0  0  0  0  0  0  0  0 59  0  0
   -6.4423   -8.1850   10.7036 C   0  0  0  0  0  0  0  0  0 60  0  0
   -7.3441   -8.7422    9.5980 C   0  0  0  0  0  0  0  0  0 61  0  0
   -5.1049   -5.7186   10.8420 O   0  0  0  0  0  0  0  0  0 62  0  0
   -0.5682   -4.7901    7.7660 O   0  0  0  0  0  0  0  0  0 63  0  0
   -0.1182   -5.2900    6.4771 C   0  0  3  0  0  0  0  0  0 64  0  0
    0.7049   -6.5637    6.6583 C   0  0  0  0  0  0  0  0  0 65  0  0
   -1.3061   -5.5326    5.5539 C   0  0  3  0  0  0  0  0  0 66  0  0
   -0.4011   -6.4882    0.9703 C   0  0  0  0  0  0  0  0  0 67  0  0
   -0.0384   -7.3482   -0.1668 C   0  0  0  0  0  0  0  0  0 68  0  0
   -1.1925   -7.0488    2.0748 C   0  0  0  0  0  0  0  0  0 69  0  0
   -0.0099   -5.2294    0.9902 N   0  0  0  0  0  0  0  0  0 70  0  0
    0.6883   -6.8283   -1.1779 O   0  0  0  0  0  0  0  0  0 71  0  0
   -0.4377   -8.6641   -0.1908 C   0  0  0  0  0  0  0  0  0 72  0  0
   -1.5700   -6.2122    3.2240 C   0  0  0  0  0  0  0  0  0 73  0  0
   -1.5776   -8.3794    2.0149 C   0  0  0  0  0  0  0  0  0 74  0  0
    0.7154   -4.7303   -0.0186 C   0  0  0  0  0  0  0  0  0 75  0  0
    1.0660   -5.5317   -1.1240 C   0  0  0  0  0  0  0  0  0 76  0  0
   -1.1907   -9.2045    0.8575 C   0  0  0  0  0  0  0  0  0 77  0  0
   -0.0597   -9.5350   -1.3612 C   0  0  0  0  0  0  0  0  0 78  0  0
   -0.8602   -6.2785    4.3678 N   0  0  3  0  0  0  0  0  0 79  0  0
   -2.5228   -5.4604    3.1421 O   0  0  0  0  0  0  0  0  0 80  0  0
   -2.3189   -8.9291    3.0362 N   0  0  0  0  0  0  0  0  0 81  0  0
    1.1302   -3.3740    0.0149 C   0  0  0  0  0  0  0  0  0 82  0  0
    1.8160   -4.9848   -2.1619 C   0  0  0  0  0  0  0  0  0 83  0  0
   -1.5330  -10.3757    0.8117 O   0  0  0  0  0  0  0  0  0 84  0  0
    0.7652   -2.5132    1.1574 C   0  0  0  0  0  0  0  0  0 85  0  0
    1.8817   -2.8621   -1.0333 C   0  0  0  0  0  0  0  0  0 86  0  0
    2.2069   -3.6634   -2.1187 C   0  0  0  0  0  0  0  0  0 87  0  0
    2.2031   -5.8424   -3.3391 C   0  0  0  0  0  0  0  0  0 88  0  0
    1.0550   -1.1972    1.1294 N   0  0  3  0  0  0  0  0  0 89  0  0
    0.2032   -2.9914    2.1236 O   0  0  0  0  0  0  0  0  0 90  0  0
    2.5449    4.3888   -0.5121 H   0  0  0  0  0  0  0  0  0 91  0  0
    1.6036   -2.2209    3.8129 H   0  0  0  0  0  0  0  0  0 92  0  0
    4.3760    2.8446   -1.3031 H   0  0  0  0  0  0  0  0  0 93  0  0
    3.4923   -2.1932    5.2621 H   0  0  0  0  0  0  0  0  0 94  0  0
    2.9605    4.1107    3.0285 H   0  0  0  0  0  0  0  0  0 95  0  0
    4.3460    5.1312    2.5731 H   0  0  0  0  0  0  0  0  0 96  0  0
    2.7429    5.4384    1.8632 H   0  0  0  0  0  0  0  0  0 97  0  0
    2.7083    0.5271   -0.3362 H   0  0  0  0  0  0  0  0  0 98  0  0
    4.4455    0.5891   -0.7189 H   0  0  0  0  0  0  0  0  0 99  0  0
    3.8426    1.2979    0.7985 H   0  0  0  0  0  0  0  0  0100  0  0
    2.4086    3.2075   -2.7156 H   0  0  0  0  0  0  0  0  0101  0  0
    2.8890    1.4964   -2.8126 H   0  0  0  0  0  0  0  0  0102  0  0
    1.4963    1.9745   -1.8126 H   0  0  0  0  0  0  0  0  0103  0  0
    1.5580   -0.6878    6.3272 H   0  0  0  0  0  0  0  0  0104  0  0
    6.7985    3.8763    1.7007 H   0  0  0  0  0  0  0  0  0105  0  0
    5.5165    3.8160    2.9385 H   0  0  0  0  0  0  0  0  0106  0  0
    4.0910   -0.0362    7.6792 H   0  0  0  0  0  0  0  0  0107  0  0
    2.7339   -1.0443    8.2362 H   0  0  0  0  0  0  0  0  0108  0  0
    3.9926   -1.7451    7.1909 H   0  0  0  0  0  0  0  0  0109  0  0
    1.9522    1.4020    5.2810 H   0  0  0  0  0  0  0  0  0110  0  0
    2.7081    1.5840    6.8822 H   0  0  0  0  0  0  0  0  0111  0  0
    3.7177    1.2557    5.4535 H   0  0  0  0  0  0  0  0  0112  0  0
    7.0777   -0.2838    3.5267 H   0  0  0  0  0  0  0  0  0113  0  0
    5.0670   -0.9379    6.8745 H   0  0  0  0  0  0  0  0  0114  0  0
    6.0226   -2.1321    5.9574 H   0  0  0  0  0  0  0  0  0115  0  0
    7.2145    1.5085    0.6360 H   0  0  0  0  0  0  0  0  0116  0  0
    8.1436    0.8457    2.0018 H   0  0  0  0  0  0  0  0  0117  0  0
    6.5814    0.1203    1.5528 H   0  0  0  0  0  0  0  0  0118  0  0
    8.6407    0.0830    5.1490 H   0  0  0  0  0  0  0  0  0119  0  0
    7.7319    1.4842    5.7834 H   0  0  0  0  0  0  0  0  0120  0  0
    6.9419    0.2077    7.4995 H   0  0  0  0  0  0  0  0  0121  0  0
    7.8800   -1.1830    6.8858 H   0  0  0  0  0  0  0  0  0122  0  0
   -0.0175    1.7123    2.4917 H   0  0  0  0  0  0  0  0  0123  0  0
   -0.3964    0.3493   -0.2128 H   0  0  0  0  0  0  0  0  0124  0  0
   -1.6568    0.5679    1.0249 H   0  0  0  0  0  0  0  0  0125  0  0
   -0.9523    1.9860    0.2120 H   0  0  0  0  0  0  0  0  0126  0  0
   -0.2858   -0.7357    2.6747 H   0  0  0  0  0  0  0  0  0127  0  0
   -1.2190   -2.6000    9.4661 H   0  0  0  0  0  0  0  0  0128  0  0
   -3.8561   -5.6789    4.9409 H   0  0  0  0  0  0  0  0  0129  0  0
    0.9276   -1.5068    9.7026 H   0  0  0  0  0  0  0  0  0130  0  0
   -4.4426   -8.1835    6.1350 H   0  0  0  0  0  0  0  0  0131  0  0
    0.4111   -4.7201   12.3117 H   0  0  0  0  0  0  0  0  0132  0  0
   -0.0471   -6.1546   11.3628 H   0  0  0  0  0  0  0  0  0133  0  0
    1.2190   -5.0574   10.7619 H   0  0  0  0  0  0  0  0  0134  0  0
    0.2298   -2.8530   12.3501 H   0  0  0  0  0  0  0  0  0135  0  0
    1.0699   -1.2982   12.1373 H   0  0  0  0  0  0  0  0  0136  0  0
   -0.6392   -1.4581   11.6664 H   0  0  0  0  0  0  0  0  0137  0  0
    2.0526   -3.9457    9.5806 H   0  0  0  0  0  0  0  0  0138  0  0
    2.8966   -2.5612   10.3148 H   0  0  0  0  0  0  0  0  0139  0  0
    2.0645   -3.7468   11.3493 H   0  0  0  0  0  0  0  0  0140  0  0
   -6.8110   -7.4415    6.0009 H   0  0  0  0  0  0  0  0  0141  0  0
   -1.9446   -5.7546   12.4683 H   0  0  0  0  0  0  0  0  0142  0  0
   -3.5259   -5.0256   12.1923 H   0  0  0  0  0  0  0  0  0143  0  0
   -5.5721   -4.7372    5.3163 H   0  0  0  0  0  0  0  0  0144  0  0
   -7.3061   -5.1324    5.2447 H   0  0  0  0  0  0  0  0  0145  0  0
   -6.4590   -5.1242    6.8102 H   0  0  0  0  0  0  0  0  0146  0  0
   -5.7233   -8.2152    3.9468 H   0  0  0  0  0  0  0  0  0147  0  0
   -6.7985   -6.8501    3.5610 H   0  0  0  0  0  0  0  0  0148  0  0
   -5.0398   -6.5961    3.6647 H   0  0  0  0  0  0  0  0  0149  0  0
   -4.4776   -8.8065   10.1014 H   0  0  0  0  0  0  0  0  0150  0  0
   -7.2311   -8.0080    7.5764 H   0  0  0  0  0  0  0  0  0151  0  0
   -6.2513   -9.4697    7.8887 H   0  0  0  0  0  0  0  0  0152  0  0
   -1.1873   -7.5186   11.0140 H   0  0  0  0  0  0  0  0  0153  0  0
   -2.4991   -8.6943   11.2690 H   0  0  0  0  0  0  0  0  0154  0  0
   -2.2048   -8.0274    9.6451 H   0  0  0  0  0  0  0  0  0155  0  0
   -6.3184   -8.9235   11.4903 H   0  0  0  0  0  0  0  0  0156  0  0
   -6.8561   -7.2582   11.0934 H   0  0  0  0  0  0  0  0  0157  0  0
   -8.2944   -8.2106    9.5835 H   0  0  0  0  0  0  0  0  0158  0  0
   -7.5110   -9.8063    9.7515 H   0  0  0  0  0  0  0  0  0159  0  0
    0.5249   -4.5246    6.0230 H   0  0  0  0  0  0  0  0  0160  0  0
    0.1107   -7.3079    7.1886 H   0  0  0  0  0  0  0  0  0161  0  0
    0.9891   -6.9546    5.6813 H   0  0  0  0  0  0  0  0  0162  0  0
    1.6022   -6.3375    7.2342 H   0  0  0  0  0  0  0  0  0163  0  0
   -1.7014   -4.5618    5.2377 H   0  0  0  0  0  0  0  0  0164  0  0
    0.8975  -10.0165   -1.1616 H   0  0  0  0  0  0  0  0  0165  0  0
   -0.8255  -10.2963   -1.5098 H   0  0  0  0  0  0  0  0  0166  0  0
    0.0221   -8.9219   -2.2587 H   0  0  0  0  0  0  0  0  0167  0  0
   -0.0553   -6.8182    4.4085 H   0  0  0  0  0  0  0  0  0168  0  0
   -2.5094   -8.4081    3.8319 H   0  0  0  0  0  0  0  0  0169  0  0
   -2.6507   -9.8374    2.9602 H   0  0  0  0  0  0  0  0  0170  0  0
    2.1999   -1.8303   -1.0126 H   0  0  0  0  0  0  0  0  0171  0  0
    2.7887   -3.2521   -2.9304 H   0  0  0  0  0  0  0  0  0172  0  0
    1.4306   -5.7776   -4.1054 H   0  0  0  0  0  0  0  0  0173  0  0
    3.1508   -5.4919   -3.7479 H   0  0  0  0  0  0  0  0  0174  0  0
    2.3078   -6.8779   -3.0154 H   0  0  0  0  0  0  0  0  0175  0  0
    1.5521   -0.8259    0.3837 H   0  0  0  0  0  0  0  0  0176  0  0
  1 30  1  0  0  0  0
  1  3  1  0  0  0  0
  1  4  2  0  0  0  0
  2  5  1  0  0  0  0
  2 33  1  0  0  0  0
  2  6  2  0  0  0  0
  3  7  1  0  0  0  0
  3  8  1  0  0  0  0
  3 91  1  0  0  0  0
  5  9  1  0  0  0  0
  5 92  1  0  0  0  0
  7 10  1  0  0  0  0
  7 11  1  0  0  0  0
  8 12  1  0  0  0  0
  8 13  1  0  0  0  0
  8 93  1  0  0  0  0
  9 14  1  0  0  0  0
  9 15  1  0  0  0  0
  9 94  1  0  0  0  0
 10 16  1  0  0  0  0
 10 17  2  0  0  0  0
 11 95  1  0  0  0  0
 11 96  1  0  0  0  0
 11 97  1  0  0  0  0
 12 98  1  0  0  0  0
 12 99  1  0  0  0  0
 12100  1  0  0  0  0
 13101  1  0  0  0  0
 13102  1  0  0  0  0
 13103  1  0  0  0  0
 14 18  1  0  0  0  0
 14 19  2  0  0  0  0
 15 20  1  0  0  0  0
 15 21  1  0  0  0  0
 15104  1  0  0  0  0
 16 22  1  0  0  0  0
 16105  1  0  0  0  0
 16106  1  0  0  0  0
 18 23  1  0  0  0  0
 18 24  1  0  0  0  0
 20107  1  0  0  0  0
 20108  1  0  0  0  0
 20109  1  0  0  0  0
 21110  1  0  0  0  0
 21111  1  0  0  0  0
 21112  1  0  0  0  0
 22 25  1  0  0  0  0
 22 26  1  0  0  0  0
 23 25  1  0  0  0  0
 23 27  1  0  0  0  0
 23113  1  0  0  0  0
 24 28  1  0  0  0  0
 24114  1  0  0  0  0
 24115  1  0  0  0  0
 25 29  2  0  0  0  0
 26116  1  0  0  0  0
 26117  1  0  0  0  0
 26118  1  0  0  0  0
 27 28  1  0  0  0  0
 27119  1  0  0  0  0
 27120  1  0  0  0  0
 28121  1  0  0  0  0
 28122  1  0  0  0  0
 30 31  1  0  0  0  0
 31 32  1  0  0  0  0
 31 33  1  0  0  0  0
 31123  1  0  0  0  0
 32124  1  0  0  0  0
 32125  1  0  0  0  0
 32126  1  0  0  0  0
 33 89  1  0  0  0  0
 33127  1  0  0  0  0
 34 36  1  0  0  0  0
 34 37  2  0  0  0  0
 34 63  1  0  0  0  0
 35 38  1  0  0  0  0
 35 39  2  0  0  0  0
 35 66  1  0  0  0  0
 36 40  1  0  0  0  0
 36 41  1  0  0  0  0
 36128  1  0  0  0  0
 38 42  1  0  0  0  0
 38129  1  0  0  0  0
 40 43  1  0  0  0  0
 40 44  1  0  0  0  0
 41 45  1  0  0  0  0
 41 46  1  0  0  0  0
 41130  1  0  0  0  0
 42 47  1  0  0  0  0
 42 48  1  0  0  0  0
 42131  1  0  0  0  0
 43 49  1  0  0  0  0
 43 50  2  0  0  0  0
 44132  1  0  0  0  0
 44133  1  0  0  0  0
 44134  1  0  0  0  0
 45135  1  0  0  0  0
 45136  1  0  0  0  0
 45137  1  0  0  0  0
 46138  1  0  0  0  0
 46139  1  0  0  0  0
 46140  1  0  0  0  0
 47 51  1  0  0  0  0
 47 52  2  0  0  0  0
 48 53  1  0  0  0  0
 48 54  1  0  0  0  0
 48141  1  0  0  0  0
 49 55  1  0  0  0  0
 49142  1  0  0  0  0
 49143  1  0  0  0  0
 51 56  1  0  0  0  0
 51 57  1  0  0  0  0
 53144  1  0  0  0  0
 53145  1  0  0  0  0
 53146  1  0  0  0  0
 54147  1  0  0  0  0
 54148  1  0  0  0  0
 54149  1  0  0  0  0
 55 58  1  0  0  0  0
 55 59  1  0  0  0  0
 56 60  1  0  0  0  0
 56 58  1  0  0  0  0
 56150  1  0  0  0  0
 57 61  1  0  0  0  0
 57151  1  0  0  0  0
 57152  1  0  0  0  0
 58 62  2  0  0  0  0
 59153  1  0  0  0  0
 59154  1  0  0  0  0
 59155  1  0  0  0  0
 60 61  1  0  0  0  0
 60156  1  0  0  0  0
 60157  1  0  0  0  0
 61158  1  0  0  0  0
 61159  1  0  0  0  0
 63 64  1  0  0  0  0
 64 65  1  0  0  0  0
 64 66  1  0  0  0  0
 64160  1  0  0  0  0
 65161  1  0  0  0  0
 65162  1  0  0  0  0
 65163  1  0  0  0  0
 66 79  1  0  0  0  0
 66164  1  0  0  0  0
 67 68  1  0  0  0  0
 67 69  1  0  0  0  0
 67 70  2  0  0  0  0
 68 71  1  0  0  0  0
 68 72  2  0  0  0  0
 69 73  1  0  0  0  0
 69 74  2  0  0  0  0
 70 75  1  0  0  0  0
 71 76  1  0  0  0  0
 72 77  1  0  0  0  0
 72 78  1  0  0  0  0
 73 79  1  0  0  0  0
 73 80  2  0  0  0  0
 74 81  1  0  0  0  0
 74 77  1  0  0  0  0
 75 82  2  0  0  0  0
 75 76  1  0  0  0  0
 76 83  2  0  0  0  0
 77 84  2  0  0  0  0
 78165  1  0  0  0  0
 78166  1  0  0  0  0
 78167  1  0  0  0  0
 79168  1  0  0  0  0
 81169  1  0  0  0  0
 81170  1  0  0  0  0
 82 85  1  0  0  0  0
 82 86  1  0  0  0  0
 83 87  1  0  0  0  0
 83 88  1  0  0  0  0
 85 89  1  0  0  0  0
 85 90  2  0  0  0  0
 86 87  2  0  0  0  0
 86171  1  0  0  0  0
 87172  1  0  0  0  0
 88173  1  0  0  0  0
 88174  1  0  0  0  0
 88175  1  0  0  0  0
 89176  1  0  0  0  0
M  END
>  <Substance ID> (332)
332

>  <Mouse_Female_Canc> (332)
ND

>  <SAL> (332)
1

>  <Rat_Male_Canc> (332)
3

>  <TD50_Rat> (332)
0.00111

>  <TD50_Mouse> (332)
ND

>  <Rat_Female_Canc> (332)
3

>  <Canc> (332)
3

>  <MolWeight> (332)
1255.43

>  <Mouse_Male_Canc> (332)
ND

>  <Mouse_Male_NTP> (332)
ND

>  <ChemName> (332)
Actinomycin D

>  <Rat_Male_NTP> (332)
ND

>  <Reference> (332)
CPDB

>  <Formula> (332)
C62H86N12O16

>  <SMILES> (332)
O=C2N1CCCC1C(=O)N(C)CC(=O)N(C)C(C(=O)OC(C)C(C(=O)NC2C(C)C)NC(=O)\C3=C(/N)C(=O)\C(=C/4\Oc5c(ccc(c5/N=C3\4)C(=O)NC7C(=O)NC(C(=O)N6CCCC6C(=O)N(C)CC(=O)N(C)C(C(=O)OC7C)C(C)C)C(C)C)C)C)C(C)C

>  <Rat_Female_NTP> (332)
ND

>  <CAS> (332)
50-76-0

>  <Mouse_Female_NTP> (332)
ND

>  <Synonyms> (332)
3H-Phenoxazine-1,9-dicarboxamide, 2-amino-N,N'-bis[hexadecahydro-2,5,9-trimethyl-6,13-bis(1-methylethyl)-1,4,7,11,14-pentaoxo-1H-pyrrolo[2,1-i][1,4,7,10,13]oxatetraazacyclohexadecin-10-yl]-4,6-dimethyl-3-oxo-; ACT; hbf 386; Lyovac cosmegen; Meractinomycin; Oncostatin K; X 97; Actactinomycin A IV; Actinomycin 7; Actinomycin AIV; Actinomycindioic D acid, dilactone; Actinomycin C1; actinomycin cl; (-)-actinomycin d; actinomycin i; Actinomycin I1; Actinomycin IV; Actinomycin-[threo-val-pro-sar-meval]; Actinomycin X 1; actinomycin x i; actinomyein-theo-val-pro-sar-meval; ACTO-D; AD; Dilactone actinomycindioic D acid; Dilactone actinomycin D acid; C1; Cosmegen; Dactinomycin; Dactinomycin D; dactinomyein d.

$$$$
333


 35 39  0  0  0  0  0  0  0  0999 V2000
    4.8950  -46.4434   -1.2825 C   0  0  0  0  0  0  0  0  0  0  0  0
    3.7348  -45.7894   -1.1138 C   0  0  0  0  0  0  0  0  0  0  0  0
    3.6194  -45.2649    0.2101 O   0  0  0  0  0  0  0  0  0  0  0  0
    5.5589  -46.5588    0.0440 C   0  0  2  0  0  0  0  0  0  0  0  0
    5.0008  -45.2883    0.5603 C   0  0  2  0  0  0  0  0  0  0  0  0
    5.7872  -44.2694   -0.1399 O   0  0  0  0  0  0  0  0  0  0  0  0
    6.9740  -46.2160    0.0392 C   0  0  0  0  0  0  0  0  0  0  0  0
    7.0603  -44.9174   -0.0928 C   0  0  0  0  0  0  0  0  0  0  0  0
    9.4195  -44.9780   -0.2270 C   0  0  0  0  0  0  0  0  0  0  0  0
    8.2853  -44.2889   -0.2469 C   0  0  0  0  0  0  0  0  0  0  0  0
   10.4636  -44.1132   -0.5865 O   0  0  0  0  0  0  0  0  0  0  0  0
   11.6484  -44.5820   -1.0800 C   0  0  0  0  0  0  0  0  0  0  0  0
    8.1499  -47.1120    0.0964 C   0  0  0  0  0  0  0  0  0  0  0  0
    9.3860  -46.5548    0.0065 C   0  0  0  0  0  0  0  0  0  0  0  0
    9.0758  -49.3576    0.2133 C   0  0  0  0  0  0  0  0  0  0  0  0
    7.9184  -48.5242    0.2076 O   0  0  0  0  0  0  0  0  0  0  0  0
    8.9409  -50.5776    0.2983 O   0  0  0  0  0  0  0  0  0  0  0  0
   10.3935  -48.7926    0.1728 C   0  0  0  0  0  0  0  0  0  0  0  0
   10.5897  -47.5140    0.1366 C   0  0  0  0  0  0  0  0  0  0  0  0
   12.1041  -47.2420    0.2970 C   0  0  0  0  0  0  0  0  0  0  0  0
   12.7969  -48.5763   -0.0083 C   0  0  0  0  0  0  0  0  0  0  0  0
   11.6615  -49.4959    0.1638 C   0  0  0  0  0  0  0  0  0  0  0  0
   11.8019  -50.7165    0.1700 O   0  0  0  0  0  0  0  0  0  0  0  0
    5.2405  -47.4765    0.5511 H   0  0  0  0  0  0  0  0  0  0  0  0
    5.2232  -45.1491    1.6244 H   0  0  0  0  0  0  0  0  0  0  0  0
    5.2511  -46.7924   -2.1492 H   0  0  0  0  0  0  0  0  0  0  0  0
    3.0396  -45.6829   -1.8247 H   0  0  0  0  0  0  0  0  0  0  0  0
    8.3155  -43.2977   -0.3757 H   0  0  0  0  0  0  0  0  0  0  0  0
   12.2570  -43.8127   -1.2740 H   0  0  0  0  0  0  0  0  0  0  0  0
   11.4799  -45.0938   -1.9225 H   0  0  0  0  0  0  0  0  0  0  0  0
   12.0765  -45.1833   -0.4053 H   0  0  0  0  0  0  0  0  0  0  0  0
   12.3089  -46.9479    1.2306 H   0  0  0  0  0  0  0  0  0  0  0  0
   12.4025  -46.5382   -0.3477 H   0  0  0  0  0  0  0  0  0  0  0  0
   13.1580  -48.6026   -0.9404 H   0  0  0  0  0  0  0  0  0  0  0  0
   13.5329  -48.7696    0.6405 H   0  0  0  0  0  0  0  0  0  0  0  0
  1  2  2  0  0  0  0
  2  3  1  0  0  0  0
  3  5  1  0  0  0  0
  1  4  1  0  0  0  0
  4  5  1  0  0  0  0
  5  6  1  0  0  0  0
  6  8  1  0  0  0  0
  4  7  1  0  0  0  0
  7  8  2  0  0  0  0
  9 14  1  0  0  0  0
  7 13  1  0  0  0  0
  8 10  1  0  0  0  0
 10  9  2  0  0  0  0
  9 11  1  0  0  0  0
 11 12  1  0  0  0  0
 13 14  2  0  0  0  0
 13 16  1  0  0  0  0
 14 19  1  0  0  0  0
 18 15  1  0  0  0  0
 15 16  1  0  0  0  0
 15 17  2  0  0  0  0
 18 19  2  0  0  0  0
 20 21  1  0  0  0  0
 21 22  1  0  0  0  0
 22 18  1  0  0  0  0
 19 20  1  0  0  0  0
 22 23  2  0  0  0  0
  4 24  1  1  0  0  0
  5 25  1  1  0  0  0
  1 26  1  0  0  0  0
  2 27  1  0  0  0  0
 10 28  1  0  0  0  0
 12 29  1  0  0  0  0
 12 30  1  0  0  0  0
 12 31  1  0  0  0  0
 20 32  1  0  0  0  0
 20 33  1  0  0  0  0
 21 34  1  0  0  0  0
 21 35  1  0  0  0  0
M  END
>  <Substance ID> (333)
333

>  <Mouse_Female_Canc> (333)
1

>  <SAL> (333)
3

>  <Rat_Male_Canc> (333)
3

>  <TD50_Rat> (333)
0.0032

>  <TD50_Mouse> (333)
NP

>  <Rat_Female_Canc> (333)
3

>  <Canc> (333)
3

>  <MolWeight> (333)
312.28

>  <Mouse_Male_Canc> (333)
1

>  <Mouse_Male_NTP> (333)
ND

>  <ChemName> (333)
Aflatoxin B1

>  <Rat_Male_NTP> (333)
ND

>  <Reference> (333)
CPDB

>  <Formula> (333)
C17H12O6

>  <SMILES> (333)
O=C5C=4C(=O)Oc3c1c(O[C@H]2O\C=C/[C@@H]12)cc(OC)c3C=4CC5

>  <Rat_Female_NTP> (333)
ND

>  <CAS> (333)
1162-65-8

>  <Mouse_Female_NTP> (333)
ND

>  <Synonyms> (333)
2,3,6a,9a-tetrahydro-4-methoxycyclopenta(c)furo(3',2':4,5)furo(2,3-h)(1)benzo-pyran-1,11-dione; AFB1; AFBI; aflatoxin b; Aflatoxin B1, crystalline.

$$$$
334


 22 24  0  0  0  0  0  0  0  0999 V2000
    5.2139  -55.6700    0.0001 N   0  0  0  0  0  0  0  0  0  0  0  0
    6.1047  -53.6218    0.0022 C   0  0  0  0  0  0  0  0  0  0  0  0
    6.4045  -54.8981    0.0033 C   0  0  0  0  0  0  0  0  0  0  0  0
    8.6998  -54.3927    0.0034 C   0  0  0  0  0  0  0  0  0  0  0  0
    8.2925  -52.9461   -0.0006 C   0  0  0  0  0  0  0  0  0  0  0  0
    7.7668  -55.3483    0.0053 C   0  0  0  0  0  0  0  0  0  0  0  0
    7.0551  -52.6134    0.0002 N   0  0  0  0  0  0  0  0  0  0  0  0
    4.2635  -54.8081   -0.0014 C   0  0  0  0  0  0  0  0  0  0  0  0
    4.7541  -53.5385    0.0014 N   0  0  0  0  0  0  0  0  0  0  0  0
    3.9482  -52.4166    0.0037 C   0  0  0  0  0  0  0  0  0  0  0  0
    2.6228  -52.6053    0.0005 C   0  0  0  0  0  0  0  0  0  0  0  0
    2.0448  -53.9900   -0.0061 C   0  0  0  0  0  0  0  0  0  0  0  0
    2.8468  -55.0594   -0.0065 C   0  0  0  0  0  0  0  0  0  0  0  0
    9.2746  -51.9541   -0.0063 N   0  0  0  0  0  0  0  0  0  0  0  0
    9.6689  -54.6396    0.0047 H   0  0  0  0  0  0  0  0  0  0  0  0
    8.0036  -56.3199    0.0080 H   0  0  0  0  0  0  0  0  0  0  0  0
    4.3405  -51.4968    0.0076 H   0  0  0  0  0  0  0  0  0  0  0  0
    2.0109  -51.8143    0.0025 H   0  0  0  0  0  0  0  0  0  0  0  0
    1.0525  -54.1138   -0.0103 H   0  0  0  0  0  0  0  0  0  0  0  0
    2.4797  -55.9896   -0.0101 H   0  0  0  0  0  0  0  0  0  0  0  0
    9.0110  -50.9895   -0.0090 H   0  0  0  0  0  0  0  0  0  0  0  0
   10.2418  -52.2080   -0.0076 H   0  0  0  0  0  0  0  0  0  0  0  0
  8  1  2  0  0  0  0
  1  3  1  0  0  0  0
  9  2  1  0  0  0  0
  2  3  2  0  0  0  0
  4  5  1  0  0  0  0
  2  7  1  0  0  0  0
  3  6  1  0  0  0  0
  6  4  2  0  0  0  0
  5  7  2  0  0  0  0
  8  9  1  0  0  0  0
  8 13  1  0  0  0  0
  9 10  1  0  0  0  0
 10 11  2  0  0  0  0
 11 12  1  0  0  0  0
 12 13  2  0  0  0  0
  5 14  1  0  0  0  0
  4 15  1  0  0  0  0
  6 16  1  0  0  0  0
 10 17  1  0  0  0  0
 11 18  1  0  0  0  0
 12 19  1  0  0  0  0
 13 20  1  0  0  0  0
 14 21  1  0  0  0  0
 14 22  1  0  0  0  0
M  END
>  <Substance ID> (334)
334

>  <Mouse_Female_Canc> (334)
3

>  <SAL> (334)
3

>  <Rat_Male_Canc> (334)
3

>  <TD50_Rat> (334)
42.3

>  <TD50_Mouse> (334)
16

>  <Rat_Female_Canc> (334)
3

>  <Canc> (334)
3

>  <MolWeight> (334)
184.20

>  <Mouse_Male_Canc> (334)
3

>  <Mouse_Male_NTP> (334)
ND

>  <ChemName> (334)
2-Aminodipyrido[1,2-a:3',2'-d]imidazole

>  <Rat_Male_NTP> (334)
ND

>  <Reference> (334)
CPDB

>  <Formula> (334)
C10H8N4

>  <SMILES> (334)
N12C3=C(C=CC(=N3)N)N=C1C=CC=C2

>  <Rat_Female_NTP> (334)
ND

>  <CAS> (334)
67730-10-3

>  <Mouse_Female_NTP> (334)
ND

>  <Synonyms> (334)
Dipyrido[1,2-a:3',2'-d]imidazol-2-amine; Glu-P-2.

$$$$
335


 13 12  0  0  0  0  0  0  0  0999 V2000
    4.4059  -72.3888   -0.0001 C   0  0  0  0  0  0  0  0  0  0  0  0
    5.5869  -71.7746    0.0001 C   0  0  0  0  0  0  0  0  0  0  0  0
    6.8522  -72.5820    0.0000 C   0  0  0  0  0  0  0  0  0  0  0  0
    8.0104  -71.6776    0.0002 N   0  0  0  0  0  0  0  0  0  0  0  0
    9.1903  -72.4303    0.0001 N   0  0  0  0  0  0  0  0  0  0  0  0
    3.5627  -71.8512   -0.0000 H   0  0  0  0  0  0  0  0  0  0  0  0
    4.3618  -73.3878   -0.0004 H   0  0  0  0  0  0  0  0  0  0  0  0
    5.6311  -70.7756    0.0004 H   0  0  0  0  0  0  0  0  0  0  0  0
    6.8796  -73.1587    0.8165 H   0  0  0  0  0  0  0  0  0  0  0  0
    6.8797  -73.1584   -0.8167 H   0  0  0  0  0  0  0  0  0  0  0  0
    7.9830  -71.1009   -0.8163 H   0  0  0  0  0  0  0  0  0  0  0  0
    9.9787  -71.8152    0.0002 H   0  0  0  0  0  0  0  0  0  0  0  0
    9.2183  -73.0070   -0.8164 H   0  0  0  0  0  0  0  0  0  0  0  0
  1  2  2  0  0  0  0
  2  3  1  0  0  0  0
  3  4  1  0  0  0  0
  4  5  1  0  0  0  0
  1  6  1  0  0  0  0
  1  7  1  0  0  0  0
  2  8  1  0  0  0  0
  3  9  1  0  0  0  0
  3 10  1  0  0  0  0
  4 11  1  0  0  0  0
  5 12  1  0  0  0  0
  5 13  1  0  0  0  0
M  END
>  <Substance ID> (335)
335

>  <Mouse_Female_Canc> (335)
3

>  <SAL> (335)
ND

>  <Rat_Male_Canc> (335)
ND

>  <TD50_Rat> (335)
ND

>  <TD50_Mouse> (335)
34.2

>  <Rat_Female_Canc> (335)
ND

>  <Canc> (335)
3

>  <MolWeight> (335)
72.11

>  <Mouse_Male_Canc> (335)
3

>  <Mouse_Male_NTP> (335)
ND

>  <ChemName> (335)
Allylhydrazine hydrochloride

>  <Rat_Male_NTP> (335)
ND

>  <Reference> (335)
CPDB

>  <Formula> (335)
C3H8N2

>  <SMILES> (335)
C=CCNN

>  <Rat_Female_NTP> (335)
ND

>  <CAS> (335)
52207-83-7

>  <Mouse_Female_NTP> (335)
ND

>  <Synonyms> (335)
-

$$$$
336


 32 33  0  0  0  0  0  0  0  0999 V2000
    4.4704  -81.2387    0.0002 C   0  0  0  0  0  0  0  0  0  0  0  0
    5.8026  -81.1852   -0.0008 C   0  0  0  0  0  0  0  0  0  0  0  0
    5.7748  -78.7617    0.0005 C   0  0  0  0  0  0  0  0  0  0  0  0
    4.3050  -78.8250   -0.0003 C   0  0  0  0  0  0  0  0  0  0  0  0
    6.4930  -79.8864    0.0007 C   0  0  0  0  0  0  0  0  0  0  0  0
    3.6860  -80.0040    0.0005 C   0  0  0  0  0  0  0  0  0  0  0  0
    6.4624  -77.4296    0.0005 C   0  0  0  0  0  0  0  0  0  0  0  0
    7.9124  -79.8379    0.0018 N   0  0  0  0  0  0  0  0  0  0  0  0
    8.5432  -80.8757   -0.0022 N   0  0  0  0  0  0  0  0  0  0  0  0
    9.9644  -80.9127   -0.0002 C   0  0  0  0  0  0  0  0  0  0  0  0
   10.5790  -82.0958    0.0003 C   0  0  0  0  0  0  0  0  0  0  0  0
   12.7690  -81.0610   -0.0006 C   0  0  0  0  0  0  0  0  0  0  0  0
   12.1056  -79.7521    0.0004 C   0  0  0  0  0  0  0  0  0  0  0  0
   12.0418  -82.1747    0.0004 C   0  0  0  0  0  0  0  0  0  0  0  0
   10.7704  -79.6767    0.0007 C   0  0  0  0  0  0  0  0  0  0  0  0
   12.9350  -78.4982    0.0009 C   0  0  0  0  0  0  0  0  0  0  0  0
   14.1664  -81.1391   -0.0002 N   0  0  0  0  0  0  0  0  0  0  0  0
    4.0066  -82.1246    0.0007 H   0  0  0  0  0  0  0  0  0  0  0  0
    6.3348  -82.0318   -0.0027 H   0  0  0  0  0  0  0  0  0  0  0  0
    3.7694  -77.9805   -0.0016 H   0  0  0  0  0  0  0  0  0  0  0  0
    2.6868  -80.0453    0.0014 H   0  0  0  0  0  0  0  0  0  0  0  0
    7.4531  -77.5654    0.0011 H   0  0  0  0  0  0  0  0  0  0  0  0
    6.1963  -76.9166    0.8166 H   0  0  0  0  0  0  0  0  0  0  0  0
    6.1972  -76.9171   -0.8162 H   0  0  0  0  0  0  0  0  0  0  0  0
   10.0371  -82.9362    0.0005 H   0  0  0  0  0  0  0  0  0  0  0  0
   12.4939  -83.0666    0.0013 H   0  0  0  0  0  0  0  0  0  0  0  0
   10.3190  -78.7844    0.0015 H   0  0  0  0  0  0  0  0  0  0  0  0
   12.3330  -77.6998    0.0016 H   0  0  0  0  0  0  0  0  0  0  0  0
   13.5120  -78.4794   -0.8157 H   0  0  0  0  0  0  0  0  0  0  0  0
   13.5126  -78.4804    0.8171 H   0  0  0  0  0  0  0  0  0  0  0  0
   14.6173  -82.0316   -0.0009 H   0  0  0  0  0  0  0  0  0  0  0  0
   14.7139  -80.3023    0.0008 H   0  0  0  0  0  0  0  0  0  0  0  0
  1  2  2  0  0  0  0
  3  4  1  0  0  0  0
  1  6  1  0  0  0  0
  2  5  1  0  0  0  0
  5  3  2  0  0  0  0
  4  6  2  0  0  0  0
  3  7  1  0  0  0  0
  5  8  1  0  0  0  0
  8  9  2  0  0  0  0
  9 10  1  0  0  0  0
 10 11  2  0  0  0  0
 12 13  1  0  0  0  0
 10 15  1  0  0  0  0
 11 14  1  0  0  0  0
 14 12  2  0  0  0  0
 13 15  2  0  0  0  0
 13 16  1  0  0  0  0
 12 17  1  0  0  0  0
  1 18  1  0  0  0  0
  2 19  1  0  0  0  0
  4 20  1  0  0  0  0
  6 21  1  0  0  0  0
  7 22  1  0  0  0  0
  7 23  1  0  0  0  0
  7 24  1  0  0  0  0
 11 25  1  0  0  0  0
 14 26  1  0  0  0  0
 15 27  1  0  0  0  0
 16 28  1  0  0  0  0
 16 29  1  0  0  0  0
 16 30  1  0  0  0  0
 17 31  1  0  0  0  0
 17 32  1  0  0  0  0
M  END
>  <Substance ID> (336)
336

>  <Mouse_Female_Canc> (336)
ND

>  <SAL> (336)
3

>  <Rat_Male_Canc> (336)
3

>  <TD50_Rat> (336)
4.04

>  <TD50_Mouse> (336)
NP

>  <Rat_Female_Canc> (336)
3

>  <Canc> (336)
3

>  <MolWeight> (336)
225.29

>  <Mouse_Male_Canc> (336)
1

>  <Mouse_Male_NTP> (336)
ND

>  <ChemName> (336)
ortho-Aminoazotoluene

>  <Rat_Male_NTP> (336)
ND

>  <Reference> (336)
CPDB

>  <Formula> (336)
C14H15N3

>  <SMILES> (336)
CC1=C(C=CC=C1)/N=N/C2=CC(=C(C=C2)N)C

>  <Rat_Female_NTP> (336)
ND

>  <CAS> (336)
97-56-3

>  <Mouse_Female_NTP> (336)
ND

>  <Synonyms> (336)
2',3-dimethyl-4-aminoazobenzene; O-AAT; oil yellow 2681; oil yellow 2R; oil yellow a; oil yellow at; oil yellow c; oil yellow i; oil yellow t; organol yellow 2t; solvent yellow 3; somalia yellow r; sudan yellow rra; toluazotoluidine; tulabase fast garnet gb; tulabase fast garnet gbc; waxakol yellow nl; 2-Amino-5-azotoluene; o-aminoazotoluol; o-Aminoazotoulene; O-AT; 2-methyl-4-((2-methylphenyl)azo)benzenamine; o-tolueneazo-o-toluidine; 4-(o-Tolylazo)-o-toluidine; 4'-amino-2,3'-azotoluene; 4'-amino-2,3'-dimethylazobenzene; 4-amino-2',3-dimethylazobenzene; 5-(o-tolylazo)-2-aminotoluene; aminoazotoluene; brasilazina oil yellow r; C.I. 11160; C.I. 11160b; C.I. Solvent Yellow 3; Fast garnet gbc base; fast oil yellow; fast yellow at; fat yellow b; hidaco oil yellow; OAAT; oil yellow 21.

$$$$
337


 23 23  0  0  0  0  0  0  0  0999 V2000
    5.2950  -88.7082    0.2851 C   0  0  0  0  0  0  0  0  0  0  0  0
    5.1917  -90.1920   -0.1285 C   0  0  0  0  0  0  0  0  0  0  0  0
    6.3278  -90.9974    0.5354 C   0  0  0  0  0  0  0  0  0  0  0  0
    7.6905  -90.4266    0.0932 C   0  0  0  0  0  0  0  0  0  0  0  0
    7.7887  -88.9476    0.5188 C   0  0  0  0  0  0  0  0  0  0  0  0
    6.6601  -88.1416   -0.1541 C   0  0  0  0  0  0  0  0  0  0  0  0
    6.7273  -86.7113    0.2107 N   0  0  0  0  0  0  0  0  0  0  0  0
    8.2564  -86.0138   -0.2640 S   0  0  0  0  0  0  0  0  0  0  0  0
    8.1554  -84.5001   -0.1742 O   0  0  0  0  0  0  0  0  0  0  0  0
    8.5672  -86.4128   -1.6901 O   0  0  0  0  0  0  0  0  0  0  0  0
    9.5069  -86.5353    0.7675 O   0  5  0  0  0  0  0  0  0  0  0  0
    4.5623  -88.1887   -0.1545 H   0  0  0  0  0  0  0  0  0  0  0  0
    5.2079  -88.6331    1.2785 H   0  0  0  0  0  0  0  0  0  0  0  0
    4.3090  -90.5583    0.1657 H   0  0  0  0  0  0  0  0  0  0  0  0
    5.2692  -90.2660   -1.1227 H   0  0  0  0  0  0  0  0  0  0  0  0
    6.2459  -90.9311    1.5299 H   0  0  0  0  0  0  0  0  0  0  0  0
    6.2624  -91.9560    0.2583 H   0  0  0  0  0  0  0  0  0  0  0  0
    8.4265  -90.9477    0.5254 H   0  0  0  0  0  0  0  0  0  0  0  0
    7.7733  -90.4938   -0.9011 H   0  0  0  0  0  0  0  0  0  0  0  0
    7.6990  -88.8804    1.5125 H   0  0  0  0  0  0  0  0  0  0  0  0
    8.6746  -88.5784    0.2379 H   0  0  0  0  0  0  0  0  0  0  0  0
    6.7702  -88.2210   -1.1448 H   0  0  0  0  0  0  0  0  0  0  0  0
    5.9876  -86.2214   -0.2506 H   0  0  0  0  0  0  0  0  0  0  0  0
  1  2  1  0  0  0  0
  1  6  1  0  0  0  0
  2  3  1  0  0  0  0
  3  4  1  0  0  0  0
  4  5  1  0  0  0  0
  5  6  1  0  0  0  0
  6  7  1  0  0  0  0
  7  8  1  0  0  0  0
  8  9  2  0  0  0  0
  8 10  2  0  0  0  0
  8 11  1  0  0  0  0
  1 12  1  0  0  0  0
  1 13  1  0  0  0  0
  2 14  1  0  0  0  0
  2 15  1  0  0  0  0
  3 16  1  0  0  0  0
  3 17  1  0  0  0  0
  4 18  1  0  0  0  0
  4 19  1  0  0  0  0
  5 20  1  0  0  0  0
  5 21  1  0  0  0  0
  6 22  1  0  0  0  0
  7 23  1  0  0  0  0
M  END
>  <Substance ID> (337)
337

>  <Mouse_Female_Canc> (337)
3

>  <SAL> (337)
ND

>  <Rat_Male_Canc> (337)
1

>  <TD50_Rat> (337)
NP

>  <TD50_Mouse> (337)
667

>  <Rat_Female_Canc> (337)
1

>  <Canc> (337)
3

>  <MolWeight> (337)
201.23

>  <Mouse_Male_Canc> (337)
3

>  <Mouse_Male_NTP> (337)
ND

>  <ChemName> (337)
Sodium Cyclamate

>  <Rat_Male_NTP> (337)
ND

>  <Reference> (337)
CPDB

>  <Formula> (337)
C6H12NO3SNa

>  <SMILES> (337)
[Na+].O=S([O-])(=O)NC1CCCCC1

>  <Rat_Female_NTP> (337)
ND

>  <CAS> (337)
139-05-9

>  <Mouse_Female_NTP> (337)
ND

>  <Synonyms> (337)
assugrin; assurgrin feinsuss; assurgrin vollsuss; asugryn; cyclohexanesulfamic acid, monosodium salt; cyclohexylsulfamic acid, monosodium salt; dulzor-etas; hachi-sugar; ibiosuc; sodium cyclohexanesulfamate; sodium cyclohexyl amidosulfate; sodium cyclohexyl sulfamate; sodium cyclohexylsulfamidate; Sodium N-cyclohexylsulfamate; N-Cyclohexylsulphamic acid sodium salt; sodium sucaryl; sucrosa; sucrun 7; suessette; suestamin; sugarin; sugaron.

$$$$
338 
 

 72 74  0  0  0  0  0  0  0  0999 V2000
    6.6844    3.4249   -1.2619 O   0  0  0  0  0  0  0  0  0  1  0  0
    7.1286    4.2443   -0.4519 C   0  0  0  0  0  0  0  0  0  2  0  0
    8.3015    4.9679   -0.8037 N   0  0  0  0  0  0  0  0  0  3  0  0
    9.0132    5.8525    0.0928 C   0  0  3  0  0  0  0  0  0  4  0  0
    9.9341    4.8689    0.8832 C   0  0  3  0  0  0  0  0  0  5  0  0
   10.8751    5.6106    1.8495 C   0  0  0  0  0  0  0  0  0  6  0  0
   10.7157    4.1198   -0.0545 O   0  0  0  0  0  0  0  0  0  7  0  0
    9.9509    6.7058   -0.7457 C   0  0  0  0  0  0  0  0  0  8  0  0
   10.4542    6.2065   -1.7526 O   0  0  0  0  0  0  0  0  0  9  0  0
   10.3379    8.0237   -0.3755 N   0  0  3  0  0  0  0  0  0 10  0  0
    9.6399    8.8801    0.6236 C   0  0  3  0  0  0  0  0  0 11  0  0
    8.5301    9.7122   -0.0925 C   0  0  0  0  0  0  0  0  0 12  0  0
    8.8093   10.5778   -0.9339 O   0  0  0  0  0  0  0  0  0 13  0  0
    7.1643    9.5115    0.2304 N   0  0  0  0  0  0  0  0  0 14  0  0
    6.1471   10.4484   -0.2551 C   0  0  3  0  0  0  0  0  0 15  0  0
    6.4505   11.9395    0.1367 C   0  0  0  0  0  0  0  0  0 16  0  0
    5.5144   12.9343   -0.5902 C   0  0  0  0  0  0  0  0  0 17  0  0
    4.7448    9.9927    0.1093 C   0  0  0  0  0  0  0  0  0 18  0  0
    3.8429   10.8069    0.3374 O   0  0  0  0  0  0  0  0  0 19  0  0
    4.4872    8.6247    0.1773 N   0  0  0  0  0  0  0  0  0 20  0  0
    3.1555    8.0686    0.3131 C   0  0  3  0  0  0  0  0  0 21  0  0
    2.0793    8.6723   -0.6198 C   0  0  0  0  0  0  0  0  0 22  0  0
    0.8069    8.0839   -0.3264 O   0  0  0  0  0  0  0  0  0 23  0  0
    3.2725    6.5982    0.1418 C   0  0  0  0  0  0  0  0  0 24  0  0
    2.3964    5.9797   -0.4639 O   0  0  0  0  0  0  0  0  0 25  0  0
    4.4432    5.9964    0.6558 N   0  0  0  0  0  0  0  0  0 26  0  0
    4.8593    4.5814    0.7685 C   0  0  3  0  0  0  0  0  0 27  0  0
    6.4204    4.4308    0.8846 C   0  0  0  0  0  0  0  0  0 28  0  0
    3.9910    3.3338    0.3870 C   0  0  0  0  0  0  0  0  0 29  0  0
    4.5803    2.1416    0.2764 C   0  0  0  0  0  0  0  0  0 30  0  0
    3.7993    0.9410   -0.0383 C   0  0  0  0  0  0  0  0  0 31  0  0
    2.4817    1.0240   -0.2022 C   0  0  0  0  0  0  0  0  0 32  0  0
    1.8189    2.3156   -0.0751 C   0  0  0  0  0  0  0  0  0 33  0  0
    2.5318    3.4054    0.2025 C   0  0  0  0  0  0  0  0  0 34  0  0
   10.8950    9.7700    0.9332 C   0  0  3  0  0  0  0  0  0 35  0  0
   10.5099   11.2239    1.8614 Cl  0  0  0  0  0  0  0  0  0 36  0  0
   11.4577   10.0391   -0.4332 C   0  0  3  0  0  0  0  0  0 37  0  0
   11.5622    8.6080   -0.9425 C   0  0  0  0  0  0  0  0  0 38  0  0
   13.0002   10.9016   -0.4457 Cl  0  0  0  0  0  0  0  0  0 39  0  0
    8.6575    4.8580   -1.7316 H   0  0  0  0  0  0  0  0  0  0  0  0
    8.4126    6.4238    0.6522 H   0  0  0  0  0  0  0  0  0  0  0  0
    9.3525    4.2658    1.4292 H   0  0  0  0  0  0  0  0  0  0  0  0
   11.4457    4.9478    2.3344 H   0  0  0  0  0  0  0  0  0  0  0  0
   10.3331    6.1297    2.5105 H   0  0  0  0  0  0  0  0  0  0  0  0
   11.4586    6.2368    1.3324 H   0  0  0  0  0  0  0  0  0  0  0  0
   11.3107    3.4852    0.4386 H   0  0  0  0  0  0  0  0  0  0  0  0
    9.1779    8.4448    1.3963 H   0  0  0  0  0  0  0  0  0  0  0  0
    6.8942    8.7286    0.7908 H   0  0  0  0  0  0  0  0  0  0  0  0
    6.1912   10.4365   -1.2541 H   0  0  0  0  0  0  0  0  0  0  0  0
    6.3285   12.0446    1.1237 H   0  0  0  0  0  0  0  0  0  0  0  0
    7.3970   12.1507   -0.1070 H   0  0  0  0  0  0  0  0  0  0  0  0
    5.7403   13.8683   -0.3136 H   0  0  0  0  0  0  0  0  0  0  0  0
    4.5644   12.7362   -0.3486 H   0  0  0  0  0  0  0  0  0  0  0  0
    5.6326   12.8422   -1.5790 H   0  0  0  0  0  0  0  0  0  0  0  0
    5.2616    7.9938    0.1300 H   0  0  0  0  0  0  0  0  0  0  0  0
    2.8175    8.3109    1.2225 H   0  0  0  0  0  0  0  0  0  0  0  0
    2.0304    9.6607   -0.4759 H   0  0  0  0  0  0  0  0  0  0  0  0
    2.3211    8.4852   -1.5720 H   0  0  0  0  0  0  0  0  0  0  0  0
    0.1115    8.4744   -0.9297 H   0  0  0  0  0  0  0  0  0  0  0  0
    5.1148    6.6478    1.0089 H   0  0  0  0  0  0  0  0  0  0  0  0
    4.3330    4.3647    1.5907 H   0  0  0  0  0  0  0  0  0  0  0  0
    6.7837    5.2544    1.3202 H   0  0  0  0  0  0  0  0  0  0  0  0
    6.6173    3.6354    1.4579 H   0  0  0  0  0  0  0  0  0  0  0  0
    5.5685    2.0658    0.4100 H   0  0  0  0  0  0  0  0  0  0  0  0
    4.2584    0.0573   -0.1299 H   0  0  0  0  0  0  0  0  0  0  0  0
    1.9487    0.2042   -0.4117 H   0  0  0  0  0  0  0  0  0  0  0  0
    0.8286    2.3835   -0.1964 H   0  0  0  0  0  0  0  0  0  0  0  0
    2.0684    4.2875    0.2871 H   0  0  0  0  0  0  0  0  0  0  0  0
   11.5578    9.3217    1.5329 H   0  0  0  0  0  0  0  0  0  0  0  0
   10.9025   10.6573   -0.9898 H   0  0  0  0  0  0  0  0  0  0  0  0
   11.5584    8.5719   -1.9419 H   0  0  0  0  0  0  0  0  0  0  0  0
   12.3821    8.1529   -0.5952 H   0  0  0  0  0  0  0  0  0  0  0  0
  2  1  2  0  0  0  0
  3  2  1  0  0  0  0
  4  3  1  0  0  0  0
  5  4  1  0  0  0  0
  6  5  1  0  0  0  0
  7  5  1  0  0  0  0
  8  4  1  0  0  0  0
  9  8  2  0  0  0  0
 10  8  1  0  0  0  0
 11 10  1  0  0  0  0
 12 11  1  0  0  0  0
 13 12  2  0  0  0  0
 14 12  1  0  0  0  0
 15 14  1  0  0  0  0
 16 15  1  0  0  0  0
 17 16  1  0  0  0  0
 18 15  1  0  0  0  0
 19 18  2  0  0  0  0
 20 18  1  0  0  0  0
 21 20  1  0  0  0  0
 22 21  1  0  0  0  0
 23 22  1  0  0  0  0
 24 21  1  0  0  0  0
 25 24  2  0  0  0  0
 26 24  1  0  0  0  0
 27 26  1  0  0  0  0
 28 27  1  0  0  0  0
 28  2  1  0  0  0  0
 29 27  1  0  0  0  0
 30 29  2  0  0  0  0
 31 30  1  0  0  0  0
 32 31  2  0  0  0  0
 33 32  1  0  0  0  0
 34 33  2  0  0  0  0
 34 29  1  0  0  0  0
 35 11  1  0  0  0  0
 36 35  1  0  0  0  0
 37 35  1  0  0  0  0
 38 37  1  0  0  0  0
 38 10  1  0  0  0  0
 39 37  1  0  0  0  0
  3 40  1  0  0  0  0
  4 41  1  0  0  0  0
  5 42  1  0  0  0  0
  6 43  1  0  0  0  0
  6 44  1  0  0  0  0
  6 45  1  0  0  0  0
  7 46  1  0  0  0  0
 11 47  1  0  0  0  0
 14 48  1  0  0  0  0
 15 49  1  0  0  0  0
 16 50  1  0  0  0  0
 16 51  1  0  0  0  0
 17 52  1  0  0  0  0
 17 53  1  0  0  0  0
 17 54  1  0  0  0  0
 20 55  1  0  0  0  0
 21 56  1  0  0  0  0
 22 57  1  0  0  0  0
 22 58  1  0  0  0  0
 23 59  1  0  0  0  0
 26 60  1  0  0  0  0
 27 61  1  0  0  0  0
 28 62  1  0  0  0  0
 28 63  1  0  0  0  0
 30 64  1  0  0  0  0
 31 65  1  0  0  0  0
 32 66  1  0  0  0  0
 33 67  1  0  0  0  0
 34 68  1  0  0  0  0
 35 69  1  0  0  0  0
 37 70  1  0  0  0  0
 38 71  1  0  0  0  0
 38 72  1  0  0  0  0
M  END
>  <Substance ID> (338)
338

>  <Mouse_Female_Canc> (338)
ND

>  <SAL> (338)
ND

>  <Rat_Male_Canc> (338)
ND

>  <TD50_Rat> (338)
ND

>  <TD50_Mouse> (338)
23.6

>  <Rat_Female_Canc> (338)
ND

>  <Canc> (338)
3

>  <MolWeight> (338)
586.47

>  <Mouse_Male_Canc> (338)
3

>  <Mouse_Male_NTP> (338)
ND

>  <ChemName> (338)
Cyclochlorotine

>  <Rat_Male_NTP> (338)
ND

>  <Reference> (338)
CPDB

>  <Formula> (338)
C25H33Cl2N5O7

>  <SMILES> (338)
O=C1NC(C(C)O)C(=O)N2C(C(=O)NC(CC)C(=O)NC(CO)C(=O)NC(C1)C3=CC=CC=C3)C(Cl)C(C2)Cl

>  <Rat_Female_NTP> (338)
ND

>  <CAS> (338)
12663-46-6

>  <Mouse_Female_NTP> (338)
ND

>  <Synonyms> (338)
-

$$$$
339


 17 17  0  0  0  0  0  0  0  0999 V2000
   31.9096  -11.9368   -0.0090 C   0  0  0  0  0  0  0  0  0  0  0  0
   31.8356  -13.2670    0.0077 C   0  0  0  0  0  0  0  0  0  0  0  0
   34.2265  -13.4147    0.0020 C   0  0  0  0  0  0  0  0  0  0  0  0
   34.2475  -11.9517   -0.0176 C   0  0  0  0  0  0  0  0  0  0  0  0
   33.0607  -14.0511    0.0142 C   0  0  0  0  0  0  0  0  0  0  0  0
   33.1585  -11.2880   -0.0218 N   0  0  0  0  0  0  0  0  0  0  0  0
   35.4791  -14.1695    0.0089 C   0  0  0  0  0  0  0  0  0  0  0  0
   36.7311  -13.4767   -0.0127 N   0  0  0  0  0  0  0  0  0  0  0  0
   37.9303  -14.1982   -0.0069 N   0  0  0  0  0  0  0  0  0  0  0  0
   35.4560  -15.4054    0.0335 O   0  0  0  0  0  0  0  0  0  0  0  0
   31.0696  -11.3942   -0.0124 H   0  0  0  0  0  0  0  0  0  0  0  0
   30.9454  -13.7224    0.0157 H   0  0  0  0  0  0  0  0  0  0  0  0
   35.1228  -11.4683   -0.0279 H   0  0  0  0  0  0  0  0  0  0  0  0
   33.0258  -15.0504    0.0276 H   0  0  0  0  0  0  0  0  0  0  0  0
   36.7492  -12.4770   -0.0318 H   0  0  0  0  0  0  0  0  0  0  0  0
   38.8052  -13.7141   -0.0219 H   0  0  0  0  0  0  0  0  0  0  0  0
   37.9123  -15.1978    0.0123 H   0  0  0  0  0  0  0  0  0  0  0  0
  1  2  2  0  0  0  0
  3  4  1  0  0  0  0
  1  6  1  0  0  0  0
  2  5  1  0  0  0  0
  5  3  2  0  0  0  0
  4  6  2  0  0  0  0
  3  7  1  0  0  0  0
  7  8  1  0  0  0  0
  8  9  1  0  0  0  0
  7 10  2  0  0  0  0
  1 11  1  0  0  0  0
  2 12  1  0  0  0  0
  4 13  1  0  0  0  0
  5 14  1  0  0  0  0
  8 15  1  0  0  0  0
  9 16  1  0  0  0  0
  9 17  1  0  0  0  0
M  END
>  <Substance ID> (339)
339

>  <Mouse_Female_Canc> (339)
3

>  <SAL> (339)
ND

>  <Rat_Male_Canc> (339)
ND

>  <TD50_Rat> (339)
ND

>  <TD50_Mouse> (339)
228

>  <Rat_Female_Canc> (339)
ND

>  <Canc> (339)
3

>  <MolWeight> (339)
137.14

>  <Mouse_Male_Canc> (339)
3

>  <Mouse_Male_NTP> (339)
ND

>  <ChemName> (339)
Nicotinic acid hydrazide

>  <Rat_Male_NTP> (339)
ND

>  <Reference> (339)
CPDB

>  <Formula> (339)
C6H7N3O

>  <SMILES> (339)
O=C(C1=CC=CN=C1)NN

>  <Rat_Female_NTP> (339)
ND

>  <CAS> (339)
553-53-7

>  <Mouse_Female_NTP> (339)
ND

>  <Synonyms> (339)
3-Pyridoyl hydrazine; Nicotinohydrazide.

$$$$
340


 27 28  0  0  0  0  0  0  0  0999 V2000
   35.1888  -25.4176    0.4076 C   0  0  0  0  0  0  0  0  0  0  0  0
   35.2859  -27.6906    0.3266 C   0  0  0  0  0  0  0  0  0  0  0  0
   36.0215  -26.5264    0.5901 N   0  0  0  0  0  0  0  0  0  0  0  0
   33.9608  -27.2876   -0.2492 C   0  0  2  0  0  0  0  0  0  0  0  0
   33.7849  -25.9180    0.2958 C   0  0  1  0  0  0  0  0  0  0  0  0
   32.7298  -25.1351   -0.4628 C   0  0  0  0  0  0  0  0  0  0  0  0
   31.4776  -26.0131   -0.5994 C   0  0  0  0  0  0  0  0  0  0  0  0
   31.4790  -27.3470   -0.3910 C   0  0  0  0  0  0  0  0  0  0  0  0
   32.7295  -28.1375    0.0217 C   0  0  0  0  0  0  0  0  0  0  0  0
   35.5356  -24.2323    0.4578 O   0  0  0  0  0  0  0  0  0  0  0  0
   35.6864  -28.8494    0.4834 O   0  0  0  0  0  0  0  0  0  0  0  0
   37.6385  -26.4671    1.1266 S   0  0  0  0  0  0  0  0  0  0  0  0
   38.7884  -26.9440   -0.1822 C   0  0  0  0  0  0  0  0  0  0  0  0
   38.6333  -25.8320   -1.5451 Cl  0  0  0  0  0  0  0  0  0  0  0  0
   38.4511  -28.5901   -0.7238 Cl  0  0  0  0  0  0  0  0  0  0  0  0
   40.2235  -26.8780    0.3811 C   0  0  0  0  0  0  0  0  0  0  0  0
   40.5695  -25.2344    0.9308 Cl  0  0  0  0  0  0  0  0  0  0  0  0
   41.3833  -27.3372   -0.8692 Cl  0  0  0  0  0  0  0  0  0  0  0  0
   34.0088  -27.3892   -1.2429 H   0  0  0  0  0  0  0  0  0  0  0  0
   33.3705  -25.8359    1.2022 H   0  0  0  0  0  0  0  0  0  0  0  0
   32.5033  -24.3002    0.0389 H   0  0  0  0  0  0  0  0  0  0  0  0
   33.0747  -24.8959   -1.3705 H   0  0  0  0  0  0  0  0  0  0  0  0
   30.6165  -25.5742   -0.8560 H   0  0  0  0  0  0  0  0  0  0  0  0
   30.6211  -27.8464   -0.5117 H   0  0  0  0  0  0  0  0  0  0  0  0
   32.7821  -28.9833   -0.5090 H   0  0  0  0  0  0  0  0  0  0  0  0
   32.6812  -28.3572    0.9961 H   0  0  0  0  0  0  0  0  0  0  0  0
   40.3018  -27.5117    1.1507 H   0  0  0  0  0  0  0  0  0  0  0  0
  1  5  1  0  0  0  0
  4  2  1  0  0  0  0
  2  3  1  0  0  0  0
  3  1  1  0  0  0  0
  4  5  1  0  0  0  0
  4  9  1  0  0  0  0
  5  6  1  0  0  0  0
  6  7  1  0  0  0  0
  7  8  2  0  0  0  0
  8  9  1  0  0  0  0
  1 10  2  0  0  0  0
  2 11  2  0  0  0  0
  3 12  1  0  0  0  0
 12 13  1  0  0  0  0
 13 14  1  0  0  0  0
 13 15  1  0  0  0  0
 13 16  1  0  0  0  0
 16 17  1  0  0  0  0
 16 18  1  0  0  0  0
  4 19  1  0  0  0  0
  5 20  1  0  0  0  0
  6 21  1  0  0  0  0
  6 22  1  0  0  0  0
  7 23  1  0  0  0  0
  8 24  1  0  0  0  0
  9 25  1  0  0  0  0
  9 26  1  0  0  0  0
 16 27  1  0  0  0  0
M  END
>  <Substance ID> (340)
340

>  <Mouse_Female_Canc> (340)
3

>  <SAL> (340)
1

>  <Rat_Male_Canc> (340)
3

>  <TD50_Rat> (340)
73.4

>  <TD50_Mouse> (340)
178

>  <Rat_Female_Canc> (340)
3

>  <Canc> (340)
3

>  <MolWeight> (340)
349.06

>  <Mouse_Male_Canc> (340)
3

>  <Mouse_Male_NTP> (340)
ND

>  <ChemName> (340)
Captafol

>  <Rat_Male_NTP> (340)
ND

>  <Reference> (340)
CPDB

>  <Formula> (340)
C10H9Cl4NO2S

>  <SMILES> (340)
C12C(C(=O)N(C1=O)SC(C(Cl)Cl)(Cl)Cl)C\C=C/C2

>  <Rat_Female_NTP> (340)
ND

>  <CAS> (340)
2425-06-1

>  <Mouse_Female_NTP> (340)
ND

>  <Synonyms> (340)
Ortho 5865; 3a,4,7,7a-Tetrahydro-2-[(1,1,2,2-tetrachloroethyl)thio]-1H-isoindole-1,3(2H)-dione; Difosan; Haipen; Merpafol; N-(1,1,2,2-tetrachloroethylmercapto)-4-cyclohexene-1,2-dicarboximide; N-(1,1,2,2-Tetrachloroethylsulfenyl)-cis-4-cyclohexene-1,2-dicarboximide; N-(1,1,2,2-tetrachloroethylthio)-4-cyclohexene-1,2-dicarboximide; N-(1,1,2,2-Tetrachloroethylthio)-D4-tetrahydrophthalimide; Sanspor; Sulfenimide.

$$$$
341


 10  9  0  0  0  0  0  0  0  0999 V2000
   30.4530  -40.6407   -0.0006 N   0  0  0  0  0  0  0  0  0  0  0  0
   31.7471  -41.0738    0.0013 N   0  0  0  0  0  0  0  0  0  0  0  0
   32.7921  -40.1480    0.0003 C   0  0  0  0  0  0  0  0  0  0  0  0
   34.1499  -40.6012   -0.0002 N   0  0  0  0  0  0  0  0  0  0  0  0
   32.5444  -38.9370   -0.0004 O   0  0  0  0  0  0  0  0  0  0  0  0
   29.7040  -41.3032    0.0001 H   0  0  0  0  0  0  0  0  0  0  0  0
   30.2537  -39.6608   -0.0028 H   0  0  0  0  0  0  0  0  0  0  0  0
   31.9468  -42.0537    0.0034 H   0  0  0  0  0  0  0  0  0  0  0  0
   34.3500  -41.5809    0.0004 H   0  0  0  0  0  0  0  0  0  0  0  0
   34.8984  -39.9380   -0.0011 H   0  0  0  0  0  0  0  0  0  0  0  0
  1  2  1  0  0  0  0
  3  4  1  0  0  0  0
  3  5  2  0  0  0  0
  3  2  1  0  0  0  0
  1  6  1  0  0  0  0
  1  7  1  0  0  0  0
  2  8  1  0  0  0  0
  4  9  1  0  0  0  0
  4 10  1  0  0  0  0
M  END
>  <Substance ID> (341)
341

>  <Mouse_Female_Canc> (341)
3

>  <SAL> (341)
1

>  <Rat_Male_Canc> (341)
ND

>  <TD50_Rat> (341)
ND

>  <TD50_Mouse> (341)
223

>  <Rat_Female_Canc> (341)
ND

>  <Canc> (341)
3

>  <MolWeight> (341)
75.07

>  <Mouse_Male_Canc> (341)
3

>  <Mouse_Male_NTP> (341)
ND

>  <ChemName> (341)
Carbamylhydrazine Hydrochloride

>  <Rat_Male_NTP> (341)
ND

>  <Reference> (341)
CPDB

>  <Formula> (341)
CH5N3O

>  <SMILES> (341)
C(NN)(N)=O

>  <Rat_Female_NTP> (341)
ND

>  <CAS> (341)
563-41-7

>  <Mouse_Female_NTP> (341)
ND

>  <Synonyms> (341)
amidourea hydrochloride; Aminourea hydrochloride; Hydrazinecarboxamide, monohydrochloride; Semicarbazide hydrochloride; Semicarbazide monohydrochloride.

$$$$
342


 15 14  0  0  0  0  0  0  0  0999 V2000
   31.1017  -52.5654    0.1184 C   0  0  0  0  0  0  0  0  0  0  0  0
   32.4609  -51.9379   -0.0005 C   0  0  0  0  0  0  0  0  0  0  0  0
   32.5651  -50.7320   -0.2503 O   0  0  0  0  0  0  0  0  0  0  0  0
   33.6028  -52.7159    0.1706 O   0  0  0  0  0  0  0  0  0  0  0  0
   35.3399  -51.5054   -0.0662 Pb  0  5  0  0  0  0  0  0  0  0  0  0
   37.0778  -52.7175    0.1610 O   0  0  0  0  0  0  0  0  0  0  0  0
   38.2191  -51.9382   -0.0027 C   0  0  0  0  0  0  0  0  0  0  0  0
   38.1160  -50.7292   -0.2417 O   0  0  0  0  0  0  0  0  0  0  0  0
   39.5788  -52.5672    0.1112 C   0  0  0  0  0  0  0  0  0  0  0  0
   31.2003  -53.5395    0.3217 H   0  0  0  0  0  0  0  0  0  0  0  0
   30.6059  -52.4536   -0.7429 H   0  0  0  0  0  0  0  0  0  0  0  0
   30.5924  -52.1214    0.8557 H   0  0  0  0  0  0  0  0  0  0  0  0
   40.2819  -51.8709   -0.0326 H   0  0  0  0  0  0  0  0  0  0  0  0
   39.6740  -53.2839   -0.5798 H   0  0  0  0  0  0  0  0  0  0  0  0
   39.6868  -52.9662    1.0218 H   0  0  0  0  0  0  0  0  0  0  0  0
  1  2  1  0  0  0  0
  2  3  2  0  0  0  0
  2  4  1  0  0  0  0
  4  5  1  0  0  0  0
  5  6  1  0  0  0  0
  6  7  1  0  0  0  0
  7  8  2  0  0  0  0
  7  9  1  0  0  0  0
  1 10  1  0  0  0  0
  1 11  1  0  0  0  0
  1 12  1  0  0  0  0
  9 13  1  0  0  0  0
  9 14  1  0  0  0  0
  9 15  1  0  0  0  0
M  END
>  <Substance ID> (342)
342

>  <Mouse_Female_Canc> (342)
1

>  <SAL> (342)
ND

>  <Rat_Male_Canc> (342)
3

>  <TD50_Rat> (342)
46.6

>  <TD50_Mouse> (342)
ND

>  <Rat_Female_Canc> (342)
3

>  <Canc> (342)
3

>  <MolWeight> (342)
325.29

>  <Mouse_Male_Canc> (342)
3

>  <Mouse_Male_NTP> (342)
ND

>  <ChemName> (342)
Lead acetate

>  <Rat_Male_NTP> (342)
ND

>  <Reference> (342)
Toxnet

>  <Formula> (342)
C4H6O4Pb 

>  <SMILES> (342)
CC(=O)O[Pb]OC(=O)C

>  <Rat_Female_NTP> (342)
ND

>  <CAS> (342)
301-04-2

>  <Mouse_Female_NTP> (342)
ND

>  <Synonyms> (342)
Acetic acid, lead(2+) salt; dibasic lead acetate; lead acetate (Pb(Ac)2); lead acetate (Pb(O2C2H3)2); Lead diacetate; lead dibasic acetate; lead(II)salt acetic acid; neutral lead acetate; normal lead acetate; Sugar of lead.

$$$$
343


 20 20  0  0  0  0  0  0  0  0999 V2000
   40.9774  -62.9564   -0.1146 C   0  0  0  0  0  0  0  0  0  0  0  0
   42.2602  -62.5998   -0.0836 C   0  0  0  0  0  0  0  0  0  0  0  0
   41.6731  -60.2548    0.0947 C   0  0  0  0  0  0  0  0  0  0  0  0
   40.2621  -60.6469    0.0604 C   0  0  0  0  0  0  0  0  0  0  0  0
   42.6246  -61.1853    0.0258 C   0  0  0  0  0  0  0  0  0  0  0  0
   39.9304  -61.9331   -0.0394 C   0  0  0  0  0  0  0  0  0  0  0  0
   43.9653  -60.8111    0.0572 N   0  0  0  0  0  0  0  0  0  0  0  0
   44.9144  -61.7360   -0.0218 N   0  0  0  0  0  0  0  0  0  0  0  0
   46.2543  -61.3526    0.0035 C   0  0  0  0  0  0  0  0  0  0  0  0
   46.5499  -60.1572    0.1057 O   0  0  0  0  0  0  0  0  0  0  0  0
   47.2599  -62.3169   -0.0874 N   0  0  0  0  0  0  0  0  0  0  0  0
   40.7284  -63.9221   -0.1892 H   0  0  0  0  0  0  0  0  0  0  0  0
   42.9746  -63.2977   -0.1350 H   0  0  0  0  0  0  0  0  0  0  0  0
   41.9222  -59.2893    0.1698 H   0  0  0  0  0  0  0  0  0  0  0  0
   39.5478  -59.9489    0.1118 H   0  0  0  0  0  0  0  0  0  0  0  0
   38.9672  -62.2007   -0.0629 H   0  0  0  0  0  0  0  0  0  0  0  0
   44.2132  -59.8458    0.1392 H   0  0  0  0  0  0  0  0  0  0  0  0
   44.6694  -62.7024   -0.0990 H   0  0  0  0  0  0  0  0  0  0  0  0
   48.2207  -62.0406   -0.0691 H   0  0  0  0  0  0  0  0  0  0  0  0
   47.0192  -63.2839   -0.1708 H   0  0  0  0  0  0  0  0  0  0  0  0
  1  2  2  0  0  0  0
  3  4  1  0  0  0  0
  1  6  1  0  0  0  0
  2  5  1  0  0  0  0
  5  3  2  0  0  0  0
  4  6  2  0  0  0  0
  5  7  1  0  0  0  0
  7  8  1  0  0  0  0
  8  9  1  0  0  0  0
  9 10  2  0  0  0  0
  9 11  1  0  0  0  0
  1 12  1  0  0  0  0
  2 13  1  0  0  0  0
  3 14  1  0  0  0  0
  4 15  1  0  0  0  0
  6 16  1  0  0  0  0
  7 17  1  0  0  0  0
  8 18  1  0  0  0  0
 11 19  1  0  0  0  0
 11 20  1  0  0  0  0
M  END
>  <Substance ID> (343)
343

>  <Mouse_Female_Canc> (343)
3

>  <SAL> (343)
ND

>  <Rat_Male_Canc> (343)
ND

>  <TD50_Rat> (343)
ND

>  <TD50_Mouse> (343)
165

>  <Rat_Female_Canc> (343)
ND

>  <Canc> (343)
3

>  <MolWeight> (343)
151.17

>  <Mouse_Male_Canc> (343)
3

>  <Mouse_Male_NTP> (343)
ND

>  <ChemName> (343)
1-Carbamyl-2-phenylhydrazine

>  <Rat_Male_NTP> (343)
ND

>  <Reference> (343)
CPDB

>  <Formula> (343)
C7H9N3O

>  <SMILES> (343)
NC(=O)NNC1=CC=CC=C1

>  <Rat_Female_NTP> (343)
ND

>  <CAS> (343)
103-03-7

>  <Mouse_Female_NTP> (343)
ND

>  <Synonyms> (343)
1-Phenylsemicarbazide; 2-phenyl-hydrazinecarboxamide; Phenicarbazide.

$$$$
344


 21 25  0  0  0  0  0  0  0  0999 V2000
   -0.0190    1.5477    0.0106 C   0  0  3  0  0  0  0  0  0  1  0  0
    0.0021   -0.0041    0.0020 C   0  0  3  0  0  0  0  0  0  2  0  0
    1.4657    1.9817   -0.0013 C   0  0  3  0  0  0  0  0  0  3  0  0
   -0.0520    1.9433    1.5104 C   0  0  3  0  0  0  0  0  0  4  0  0
   -1.1587    2.3551   -1.1296 Cl  0  0  0  0  0  0  0  0  0  5  0  0
    1.4980   -0.3975   -0.0144 C   0  0  3  0  0  0  0  0  0  6  0  0
   -0.0199   -0.4168    1.4974 C   0  0  3  0  0  0  0  0  0  7  0  0
   -1.1155   -0.8295   -1.1471 Cl  0  0  0  0  0  0  0  0  0  8  0  0
    1.4697    1.5694    1.4879 C   0  0  3  0  0  0  0  0  0  9  0  0
    2.1899    0.8056   -0.7160 C   0  0  3  0  0  0  0  0  0 10  0  0
    1.9001    3.6697   -0.4626 Cl  0  0  0  0  0  0  0  0  0 11  0  0
   -0.7986    0.7493    2.1458 C   0  0  0  0  0  0  0  0  0 12  0  0
   -0.5597    3.6045    1.9933 Cl  0  0  0  0  0  0  0  0  0 13  0  0
    1.4910   -0.0016    1.4793 C   0  0  3  0  0  0  0  0  0 14  0  0
    1.9779   -2.0679   -0.4941 Cl  0  0  0  0  0  0  0  0  0 15  0  0
   -0.4656   -2.1013    1.9609 Cl  0  0  0  0  0  0  0  0  0 16  0  0
    2.5870    2.4134    2.6237 Cl  0  0  0  0  0  0  0  0  0 17  0  0
    1.8581    0.8108   -2.4882 Cl  0  0  0  0  0  0  0  0  0 18  0  0
    3.9622    0.8287   -0.3855 Cl  0  0  0  0  0  0  0  0  0 19  0  0
   -1.7223    0.7325    2.9234 O   0  0  0  0  0  0  0  0  0 20  0  0
    2.6309   -0.8274    2.6059 Cl  0  0  0  0  0  0  0  0  0 21  0  0
  1  2  1  0  0  0  0
  1  3  1  0  0  0  0
  1  4  1  0  0  0  0
  1  5  1  0  0  0  0
  2  6  1  0  0  0  0
  2  7  1  0  0  0  0
  2  8  1  0  0  0  0
  3  9  1  0  0  0  0
  3 10  1  0  0  0  0
  3 11  1  0  0  0  0
  4 12  1  0  0  0  0
  4 13  1  0  0  0  0
  6 14  1  0  0  0  0
  6 15  1  0  0  0  0
  7 16  1  0  0  0  0
  9 17  1  0  0  0  0
 10 18  1  0  0  0  0
 10 19  1  0  0  0  0
 12 20  2  0  0  0  0
 14 21  1  0  0  0  0
  4  9  1  0  0  0  0
  6 10  1  0  0  0  0
  7 12  1  0  0  0  0
  7 14  1  0  0  0  0
  9 14  1  0  0  0  0
M  END
>  <Substance ID> (344)
344

>  <Mouse_Female_Canc> (344)
3

>  <SAL> (344)
1

>  <Rat_Male_Canc> (344)
1

>  <TD50_Rat> (344)
2.96

>  <TD50_Mouse> (344)
0.982

>  <Rat_Female_Canc> (344)
3

>  <Canc> (344)
3

>  <MolWeight> (344)
490.64

>  <Mouse_Male_Canc> (344)
3

>  <Mouse_Male_NTP> (344)
ND

>  <ChemName> (344)
Kepone

>  <Rat_Male_NTP> (344)
ND

>  <Reference> (344)
CPDB

>  <Formula> (344)
C10Cl10O

>  <SMILES> (344)
ClC54C(=O)C1(Cl)C2(Cl)C5(Cl)C3(Cl)C4(Cl)C1(Cl)C2(Cl)C3(Cl)Cl

>  <Rat_Female_NTP> (344)
ND

>  <CAS> (344)
143-50-0

>  <Mouse_Female_NTP> (344)
ND

>  <Synonyms> (344)
1,1a,3,3a,4,5,5,5a,5b,6-decachlorooctahydro-1,3,4-Metheno-2H-cyclobuta[c,d]pentalen-2-one; 1,1a,3,3a,4,5,5a,6-decachlorooctahydro-1,3,4-metheno-2H-cyclobuta(cd)pentalen-2-one; 1,2,3,5,6,7,8,9,10,10-decachloropentacyclo[5.2.1.0(2,6).0(3,9).0(5,8)]decano-4-one; Chlordecone; ciba 8514; compound 1189; decachloro-1,3,4-metheno-2H-cyclobuta(cd)pentalen-2-one; Decachloroketone; decachlorooctahydro-1,3,4-metheno-2H-cyclobuta(cd)pentalen-2-one; decachlorooctahydrokepone-2-one; decachlorotetracyclodecanone; decachlorotetrahydro-4,7-methanoindeneone; gc 1189; general chemicals 1189; Merex.

$$$$
345


 22 24  0  0  0  0  0  0  0  0999 V2000
   35.5966  -73.3691    0.0061 C   0  0  0  0  0  0  0  0  0  0  0  0
   35.1739  -74.6436   -0.0061 C   0  0  0  0  0  0  0  0  0  0  0  0
   36.1489  -75.7559   -0.0102 C   0  0  0  0  0  0  0  0  0  0  0  0
   37.0441  -73.0616    0.0091 C   0  0  0  0  0  0  0  0  0  0  0  0
   37.8702  -74.0974    0.0039 C   0  0  0  0  0  0  0  0  0  0  0  0
   37.4336  -75.4280   -0.0018 C   0  0  0  0  0  0  0  0  0  0  0  0
   38.5555  -76.2817    0.0026 N   0  0  0  0  0  0  0  0  0  0  0  0
   39.2983  -74.1316    0.0018 C   0  0  0  0  0  0  0  0  0  0  0  0
   39.6824  -75.3980    0.0046 C   0  0  0  0  0  0  0  0  0  0  0  0
   41.9764  -74.7725   -0.0002 C   0  0  0  0  0  0  0  0  0  0  0  0
   41.5346  -73.3416   -0.0080 C   0  0  0  0  0  0  0  0  0  0  0  0
   41.0784  -75.7635    0.0054 C   0  0  0  0  0  0  0  0  0  0  0  0
   40.2340  -73.0334   -0.0054 C   0  0  0  0  0  0  0  0  0  0  0  0
   34.9298  -72.6239    0.0133 H   0  0  0  0  0  0  0  0  0  0  0  0
   34.1938  -74.8420   -0.0125 H   0  0  0  0  0  0  0  0  0  0  0  0
   35.8529  -76.7111   -0.0189 H   0  0  0  0  0  0  0  0  0  0  0  0
   37.3815  -72.1203    0.0148 H   0  0  0  0  0  0  0  0  0  0  0  0
   38.5628  -77.2816    0.0039 H   0  0  0  0  0  0  0  0  0  0  0  0
   42.9526  -74.9892    0.0009 H   0  0  0  0  0  0  0  0  0  0  0  0
   42.2178  -72.6113   -0.0152 H   0  0  0  0  0  0  0  0  0  0  0  0
   41.3636  -76.7219    0.0099 H   0  0  0  0  0  0  0  0  0  0  0  0
   39.9230  -72.0829   -0.0084 H   0  0  0  0  0  0  0  0  0  0  0  0
  1  2  2  0  0  0  0
  1  4  1  0  0  0  0
  2  3  1  0  0  0  0
  3  6  2  0  0  0  0
  5  4  2  0  0  0  0
  5  6  1  0  0  0  0
  6  7  1  0  0  0  0
  7  9  1  0  0  0  0
  5  8  1  0  0  0  0
  8  9  2  0  0  0  0
 10 11  1  0  0  0  0
  8 13  1  0  0  0  0
  9 12  1  0  0  0  0
 12 10  2  0  0  0  0
 11 13  2  0  0  0  0
  1 14  1  0  0  0  0
  2 15  1  0  0  0  0
  3 16  1  0  0  0  0
  4 17  1  0  0  0  0
  7 18  1  0  0  0  0
 10 19  1  0  0  0  0
 11 20  1  0  0  0  0
 12 21  1  0  0  0  0
 13 22  1  0  0  0  0
M  END
>  <Substance ID> (345)
345

>  <Mouse_Female_Canc> (345)
3

>  <SAL> (345)
1

>  <Rat_Male_Canc> (345)
ND

>  <TD50_Rat> (345)
ND

>  <TD50_Mouse> (345)
164

>  <Rat_Female_Canc> (345)
ND

>  <Canc> (345)
3

>  <MolWeight> (345)
167.21

>  <Mouse_Male_Canc> (345)
3

>  <Mouse_Male_NTP> (345)
ND

>  <ChemName> (345)
Carbazole

>  <Rat_Male_NTP> (345)
ND

>  <Reference> (345)
CPDB

>  <Formula> (345)
C12H9N

>  <SMILES> (345)
c1cccc3c1c2c(cccc2)n3

>  <Rat_Female_NTP> (345)
ND

>  <CAS> (345)
86-74-8

>  <Mouse_Female_NTP> (345)
ND

>  <Synonyms> (345)
9-Azafluorene; 9H-Carbazole; dibenzo[b,d]pyrrole; Dibenzopyrrole; diphenyleneimine; diphenylenimide; Diphenylenimine.

$$$$
346


 41 43  0  0  0  0  0  0  0  0999 V2000
   41.4615  -87.4469   -0.6627 C   0  0  2  0  0  0  0  0  0  0  0  0
   42.0290  -88.9386   -0.5855 C   0  0  1  0  0  0  0  0  0  0  0  0
   43.4987  -88.9068   -1.0334 C   0  0  0  0  0  0  0  0  0  0  0  0
   44.3841  -88.0443   -0.1745 C   0  0  0  0  0  0  0  0  0  0  0  0
   43.6653  -86.9437    0.5057 C   0  0  0  0  0  0  0  0  0  0  0  0
   42.3651  -86.6564    0.3262 C   0  0  0  0  0  0  0  0  0  0  0  0
   40.3820  -88.4882   -0.1676 O   0  0  0  0  0  0  0  0  0  0  0  0
   40.2187  -86.4094   -0.6569 C   0  0  0  0  0  0  0  0  0  0  0  0
   39.0585  -88.0936   -0.0848 C   0  0  0  0  0  0  0  0  0  0  0  0
   38.9094  -86.8649   -0.3450 C   0  0  0  0  0  0  0  0  0  0  0  0
   36.4885  -87.0359   -0.0186 C   0  0  0  0  0  0  0  0  0  0  0  0
   36.7052  -88.4806    0.2353 C   0  0  0  0  0  0  0  0  0  0  0  0
   37.5035  -86.2085   -0.2854 C   0  0  0  0  0  0  0  0  0  0  0  0
   37.9430  -88.9719    0.2269 C   0  0  0  0  0  0  0  0  0  0  0  0
   38.2144  -90.6483    0.5283 Cl  0  0  0  0  0  0  0  0  0  0  0  0
   41.8188  -85.5630    1.0377 O   0  0  0  0  0  0  0  0  0  0  0  0
   41.9313  -89.6296    0.8540 C   0  0  0  0  0  0  0  0  0  0  0  0
   40.4462  -85.2385   -0.9668 O   0  0  0  0  0  0  0  0  0  0  0  0
   35.6134  -89.3402    0.4868 O   0  0  0  0  0  0  0  0  0  0  0  0
   34.3722  -88.6212    0.4248 C   0  0  0  0  0  0  0  0  0  0  0  0
   37.1134  -84.8097   -0.4504 O   0  0  0  0  0  0  0  0  0  0  0  0
   38.1219  -83.8266   -0.6564 C   0  0  0  0  0  0  0  0  0  0  0  0
   42.8102  -84.9089    1.8504 C   0  0  0  0  0  0  0  0  0  0  0  0
   44.9418  -88.7355    0.6860 O   0  0  0  0  0  0  0  0  0  0  0  0
   41.4526  -89.4960   -1.1831 H   0  0  0  0  0  0  0  0  0  0  0  0
   43.8540  -89.8413   -1.0115 H   0  0  0  0  0  0  0  0  0  0  0  0
   43.5340  -88.5582   -1.9701 H   0  0  0  0  0  0  0  0  0  0  0  0
   44.1836  -86.3741    1.1436 H   0  0  0  0  0  0  0  0  0  0  0  0
   35.5580  -86.6709    0.0107 H   0  0  0  0  0  0  0  0  0  0  0  0
   42.3078  -90.5547    0.8064 H   0  0  0  0  0  0  0  0  0  0  0  0
   40.9737  -89.6741    1.1386 H   0  0  0  0  0  0  0  0  0  0  0  0
   42.4514  -89.0923    1.5181 H   0  0  0  0  0  0  0  0  0  0  0  0
   33.6141  -89.2478    0.6055 H   0  0  0  0  0  0  0  0  0  0  0  0
   34.2634  -88.2209   -0.4851 H   0  0  0  0  0  0  0  0  0  0  0  0
   34.3733  -87.8936    1.1107 H   0  0  0  0  0  0  0  0  0  0  0  0
   37.6965  -82.9266   -0.7503 H   0  0  0  0  0  0  0  0  0  0  0  0
   38.6328  -84.0418   -1.4888 H   0  0  0  0  0  0  0  0  0  0  0  0
   38.7461  -83.8199    0.1249 H   0  0  0  0  0  0  0  0  0  0  0  0
   42.3902  -84.1433    2.3376 H   0  0  0  0  0  0  0  0  0  0  0  0
   43.5477  -84.5680    1.2674 H   0  0  0  0  0  0  0  0  0  0  0  0
   43.1825  -85.5602    2.5116 H   0  0  0  0  0  0  0  0  0  0  0  0
  1  2  1  0  0  0  0
  1  6  1  1  0  0  0
  2  3  1  0  0  0  0
  3  4  1  0  0  0  0
  4  5  1  1  0  0  0
  5  6  2  0  0  0  0
  9  7  1  0  0  0  0
  7  1  1  6  0  0  0
  1  8  1  0  0  0  0
  8 10  1  0  0  0  0
  9 10  2  0  0  0  0
 11 12  1  0  0  0  0
  9 14  1  0  0  0  0
 10 13  1  0  0  0  0
 13 11  2  0  0  0  0
 12 14  2  0  0  0  0
 14 15  1  0  0  0  0
  6 16  1  0  0  0  0
  2 17  1  1  0  0  0
  8 18  2  0  0  0  0
 12 19  1  0  0  0  0
 19 20  1  0  0  0  0
 13 21  1  0  0  0  0
 21 22  1  0  0  0  0
 16 23  1  0  0  0  0
  4 24  2  0  0  0  0
  2 25  1  0  0  0  0
  3 26  1  0  0  0  0
  3 27  1  0  0  0  0
  5 28  1  0  0  0  0
 11 29  1  0  0  0  0
 17 30  1  0  0  0  0
 17 31  1  0  0  0  0
 17 32  1  0  0  0  0
 20 33  1  0  0  0  0
 20 34  1  0  0  0  0
 20 35  1  0  0  0  0
 22 36  1  0  0  0  0
 22 37  1  0  0  0  0
 22 38  1  0  0  0  0
 23 39  1  0  0  0  0
 23 40  1  0  0  0  0
 23 41  1  0  0  0  0
M  END
>  <Substance ID> (346)
346

>  <Mouse_Female_Canc> (346)
3

>  <SAL> (346)
1

>  <Rat_Male_Canc> (346)
ND

>  <TD50_Rat> (346)
ND

>  <TD50_Mouse> (346)
1660

>  <Rat_Female_Canc> (346)
ND

>  <Canc> (346)
3

>  <MolWeight> (346)
352.77

>  <Mouse_Male_Canc> (346)
3

>  <Mouse_Male_NTP> (346)
ND

>  <ChemName> (346)
Griseofulvin

>  <Rat_Male_NTP> (346)
ND

>  <Reference> (346)
Toxnet

>  <Formula> (346)
C17H17ClO6

>  <SMILES> (346)
O=C1[C@@]2(OC3=C1C(=CC(=C3Cl)OC)OC)C(=CC(=O)C[C@@H]2C)OC

>  <Rat_Female_NTP> (346)
ND

>  <CAS> (346)
126-07-8

>  <Mouse_Female_NTP> (346)
ND

>  <Synonyms> (346)
(+)-Griseofulvin; (2S,6'R)-7-chloro-2',4,6-trimethoxy-6'-methylbenzofuran-2-spiro-1'-cyclohex-2'-ene-3,4'-dione; Grisactin; griscofulvin; grisefuline; griseo; griseofulvin-forte; griseofulvinum; Griseostatin; grisetin; Grisofulvin; grisovin; gris-peg; grysio; guservin; lamoryl; likuden; murfulvin; neo-fulcin; poncyl; Spiro(benzofuran-2(3H),1'-(2)cyclohexene)-3,4'-dione, 7-chloro-2',4,6-trimethoxy-6'-beta-methyl-; spirofulvin; sporostatin; (2S-trans)-7-chloro-2',4,6-trimethoxy-6'-methylspiro[benzofuran-2(3H),1'-[2]cyclohexene]-3,4'-dione; 7-chloro-2',4,6-trimethoxy-6'-beta-spiro[benzofuran-2(3H),1'-(2)cyclohexene-3,4'-dione]; 7-chloro-2',4,6-trimethoxy-6'-methylspiro[benzofuran-2(3H),1'-cyclohexene]-3,4'-dione; 7-chloro-4,6,2'-trimethoxy-6'-methylgris-2'-en-3,4'-dione; 7-chloro-4,6-dimethoxycoumaran-3-one-2-spiro-1'-(2'-methoxy)-6'-methylcyclohex-2'-en-4'-one; 7-Chloro-4,6-dimethoxycoumaran-3-one-2-spiro-1-(2'-methoxy-6'-methyl cyclohex-2'-en-4'-one); amudane; biogrisin-fp; curling factor; delmofulvina; fulcin; fulvican grisactin; Fulvicin; fulvicin-p/g; fulvicin-u/f; Fulvine; fulvina; fulvistatin; fungivin; greosin; gresfeed; gricin; Grifulvin; grifulvin v.

$$$$
347


 37 41  0  0  0  0  0  0  0  0999 V2000
    8.0500   -1.4589   -0.0065 C   0  0  0  0  0  0  0  0  0  0  0  0
    9.6562   -1.4323    0.0037 C   0  0  0  0  0  0  0  0  0  0  0  0
    7.7571   -2.9507    0.0003 C   0  0  0  0  0  0  0  0  0  0  0  0
    7.7284   -5.7898   -0.0008 C   0  0  0  0  0  0  0  0  0  0  0  0
    9.9770   -2.9074    0.0046 C   0  0  0  0  0  0  0  0  0  0  0  0
    8.8431   -3.6756    0.0042 C   0  0  0  0  0  0  0  0  0  0  0  0
   10.1934   -5.7346   -0.0034 C   0  0  0  0  0  0  0  0  0  0  0  0
   11.2917   -4.9602   -0.0032 C   0  0  0  0  0  0  0  0  0  0  0  0
    8.8736   -5.0972    0.0018 C   0  0  0  0  0  0  0  0  0  0  0  0
   11.1845   -3.4659    0.0011 C   0  0  0  0  0  0  0  0  0  0  0  0
    6.4380   -5.0454    0.0010 C   0  0  0  0  0  0  0  0  0  0  0  0
    6.4623   -3.5839    0.0000 C   0  0  0  0  0  0  0  0  0  0  0  0
    4.0487   -3.5960   -0.0010 C   0  0  0  0  0  0  0  0  0  0  0  0
    5.3309   -2.8836   -0.0014 C   0  0  0  0  0  0  0  0  0  0  0  0
    5.2700   -5.6842    0.0008 C   0  0  0  0  0  0  0  0  0  0  0  0
    4.0289   -4.9290    0.0004 C   0  0  0  0  0  0  0  0  0  0  0  0
    2.7627   -6.9846    0.0003 C   0  0  0  0  0  0  0  0  0  0  0  0
    4.0256   -7.7538   -0.0002 C   0  0  0  0  0  0  0  0  0  0  0  0
    2.7651   -5.6507    0.0011 C   0  0  0  0  0  0  0  0  0  0  0  0
    5.2098   -7.1395   -0.0001 C   0  0  0  0  0  0  0  0  0  0  0  0
   12.4203   -2.6125   -0.0029 C   0  0  0  0  0  0  0  0  0  0  0  0
    7.6850   -1.0211   -0.8282 H   0  0  0  0  0  0  0  0  0  0  0  0
    7.6744   -1.0115    0.8050 H   0  0  0  0  0  0  0  0  0  0  0  0
   10.0093   -0.9806    0.8230 H   0  0  0  0  0  0  0  0  0  0  0  0
   10.0198   -0.9793   -0.8102 H   0  0  0  0  0  0  0  0  0  0  0  0
    7.7387   -6.7897   -0.0039 H   0  0  0  0  0  0  0  0  0  0  0  0
   10.2754   -6.7312   -0.0070 H   0  0  0  0  0  0  0  0  0  0  0  0
   12.1953   -5.3884   -0.0060 H   0  0  0  0  0  0  0  0  0  0  0  0
    3.1906   -3.0825   -0.0018 H   0  0  0  0  0  0  0  0  0  0  0  0
    5.3544   -1.8839   -0.0028 H   0  0  0  0  0  0  0  0  0  0  0  0
    1.8904   -7.4736    0.0001 H   0  0  0  0  0  0  0  0  0  0  0  0
    3.9913   -8.7533   -0.0007 H   0  0  0  0  0  0  0  0  0  0  0  0
    1.9007   -5.1479    0.0021 H   0  0  0  0  0  0  0  0  0  0  0  0
    6.0535   -7.6765   -0.0005 H   0  0  0  0  0  0  0  0  0  0  0  0
   13.2306   -3.1984   -0.0052 H   0  0  0  0  0  0  0  0  0  0  0  0
   12.4297   -2.0347    0.8132 H   0  0  0  0  0  0  0  0  0  0  0  0
   12.4247   -2.0353   -0.8196 H   0  0  0  0  0  0  0  0  0  0  0  0
  1  3  1  0  0  0  0
  5  2  1  0  0  0  0
  1  2  1  0  0  0  0
  6  3  2  0  0  0  0
 11  4  1  0  0  0  0
  3 12  1  0  0  0  0
  4  9  2  0  0  0  0
  5  6  1  0  0  0  0
  7  8  2  0  0  0  0
  5 10  2  0  0  0  0
  6  9  1  0  0  0  0
  9  7  1  0  0  0  0
  8 10  1  0  0  0  0
 11 12  1  0  0  0  0
 13 16  2  0  0  0  0
 11 15  2  0  0  0  0
 12 14  2  0  0  0  0
 14 13  1  0  0  0  0
 15 16  1  0  0  0  0
 17 18  1  0  0  0  0
 15 20  1  0  0  0  0
 16 19  1  0  0  0  0
 19 17  2  0  0  0  0
 18 20  2  0  0  0  0
 10 21  1  0  0  0  0
  1 22  1  0  0  0  0
  1 23  1  0  0  0  0
  2 24  1  0  0  0  0
  2 25  1  0  0  0  0
  4 26  1  0  0  0  0
  7 27  1  0  0  0  0
  8 28  1  0  0  0  0
 13 29  1  0  0  0  0
 14 30  1  0  0  0  0
 17 31  1  0  0  0  0
 18 32  1  0  0  0  0
 19 33  1  0  0  0  0
 20 34  1  0  0  0  0
 21 35  1  0  0  0  0
 21 36  1  0  0  0  0
 21 37  1  0  0  0  0
M  END
>  <Substance ID> (347)
347

>  <Mouse_Female_Canc> (347)
ND

>  <SAL> (347)
3

>  <Rat_Male_Canc> (347)
1

>  <TD50_Rat> (347)
0.491

>  <TD50_Mouse> (347)
ND

>  <Rat_Female_Canc> (347)
3

>  <Canc> (347)
3

>  <MolWeight> (347)
268.36

>  <Mouse_Male_Canc> (347)
ND

>  <Mouse_Male_NTP> (347)
ND

>  <ChemName> (347)
3-Methylcholanthrene

>  <Rat_Male_NTP> (347)
ND

>  <Reference> (347)
CPDB

>  <Formula> (347)
C21H16

>  <SMILES> (347)
c32cc1ccc(c5c1c(c2ccc4ccccc34)CC5)C

>  <Rat_Female_NTP> (347)
ND

>  <CAS> (347)
56-49-5

>  <Mouse_Female_NTP> (347)
ND

>  <Synonyms> (347)
1,2-dihydro-3-methylbenz[j]aceanthrylene; 20-MC; 20-methylcholanthrene; 3-MC; 3-MCA; 3-MECA; MC; Methylcholanthrene.

$$$$
348


 58 60  0  0  0  0  0  0  0  0999 V2000
    6.1155  -15.3272   -0.0172 C   0  0  0  0  0  0  0  0  0  0  0  0
    7.4483  -15.3777   -0.0194 C   0  0  0  0  0  0  0  0  0  0  0  0
    7.6265  -12.9895   -0.0214 C   0  0  0  0  0  0  0  0  0  0  0  0
    6.1497  -12.9296   -0.0150 C   0  0  0  0  0  0  0  0  0  0  0  0
    8.2977  -14.1446   -0.0175 C   0  0  0  0  0  0  0  0  0  0  0  0
    5.4293  -14.0481   -0.0117 C   0  0  0  0  0  0  0  0  0  0  0  0
    4.0159  -13.9966   -0.0003 N   0  0  0  0  0  0  0  0  0  0  0  0
    3.3343  -12.7304    0.0178 C   0  0  0  0  0  0  0  0  0  0  0  0
    3.2490  -15.2138   -0.0037 C   0  0  0  0  0  0  0  0  0  0  0  0
    9.9294  -14.1719   -0.0171 C   0  0  0  0  0  0  0  0  0  0  0  0
   10.7559  -12.7087   -0.0312 C   0  0  0  0  0  0  0  0  0  0  0  0
   10.6428  -15.3835    0.0096 C   0  0  0  0  0  0  0  0  0  0  0  0
   12.0762  -12.6646   -0.2334 C   0  0  0  0  0  0  0  0  0  0  0  0
   12.3412  -10.3296   -0.0333 C   0  0  0  0  0  0  0  0  0  0  0  0
   10.8783  -10.2372    0.1691 C   0  0  0  0  0  0  0  0  0  0  0  0
   12.8785  -11.5078   -0.2334 C   0  0  0  0  0  0  0  0  0  0  0  0
   10.1277  -11.3545    0.1685 C   0  0  0  0  0  0  0  0  0  0  0  0
   10.0349  -16.7577    0.0032 C   0  0  0  0  0  0  0  0  0  0  0  0
   10.7931  -17.8673    0.0178 C   0  0  0  0  0  0  0  0  0  0  0  0
   12.2681  -17.7727    0.0420 C   0  0  0  0  0  0  0  0  0  0  0  0
   12.8622  -16.5025    0.0736 C   0  0  0  0  0  0  0  0  0  0  0  0
   12.1186  -15.4212    0.0561 C   0  0  0  0  0  0  0  0  0  0  0  0
   13.2023   -9.2239   -0.0152 N   0  0  0  0  0  0  0  0  0  0  0  0
   13.0365  -18.7891    0.0413 N   0  3  0  0  0  0  0  0  0  0  0  0
   12.7026   -7.9033    0.1787 C   0  0  0  0  0  0  0  0  0  0  0  0
   14.6249   -9.4361   -0.1827 C   0  0  0  0  0  0  0  0  0  0  0  0
   14.4744  -18.5993    0.0680 C   0  0  0  0  0  0  0  0  0  0  0  0
   12.5051  -20.1136    0.0091 C   0  0  0  0  0  0  0  0  0  0  0  0
    5.5859  -16.1755   -0.0194 H   0  0  0  0  0  0  0  0  0  0  0  0
    7.8966  -16.2715   -0.0225 H   0  0  0  0  0  0  0  0  0  0  0  0
    8.1427  -12.1330   -0.0288 H   0  0  0  0  0  0  0  0  0  0  0  0
    5.6888  -12.0421   -0.0131 H   0  0  0  0  0  0  0  0  0  0  0  0
    2.3462  -12.8834    0.0239 H   0  0  0  0  0  0  0  0  0  0  0  0
    3.5848  -12.2048   -0.7952 H   0  0  0  0  0  0  0  0  0  0  0  0
    3.5974  -12.2215    0.8375 H   0  0  0  0  0  0  0  0  0  0  0  0
    2.2736  -14.9938    0.0056 H   0  0  0  0  0  0  0  0  0  0  0  0
    3.4762  -15.7537    0.8068 H   0  0  0  0  0  0  0  0  0  0  0  0
    3.4635  -15.7411   -0.8259 H   0  0  0  0  0  0  0  0  0  0  0  0
   12.5379  -13.5357   -0.4006 H   0  0  0  0  0  0  0  0  0  0  0  0
   10.4475   -9.3452    0.3064 H   0  0  0  0  0  0  0  0  0  0  0  0
   13.8636  -11.5857   -0.3868 H   0  0  0  0  0  0  0  0  0  0  0  0
    9.1392  -11.2845    0.3024 H   0  0  0  0  0  0  0  0  0  0  0  0
    9.0392  -16.8491   -0.0125 H   0  0  0  0  0  0  0  0  0  0  0  0
   10.3549  -18.7662    0.0123 H   0  0  0  0  0  0  0  0  0  0  0  0
   13.8582  -16.4204    0.1096 H   0  0  0  0  0  0  0  0  0  0  0  0
   12.5950  -14.5421    0.0762 H   0  0  0  0  0  0  0  0  0  0  0  0
   13.4620   -7.2531    0.1608 H   0  0  0  0  0  0  0  0  0  0  0  0
   12.2383   -7.8486    1.0627 H   0  0  0  0  0  0  0  0  0  0  0  0
   12.0563   -7.6804   -0.5511 H   0  0  0  0  0  0  0  0  0  0  0  0
   15.1001   -8.5570   -0.1467 H   0  0  0  0  0  0  0  0  0  0  0  0
   14.7958   -9.8708   -1.0670 H   0  0  0  0  0  0  0  0  0  0  0  0
   14.9628  -10.0273    0.5497 H   0  0  0  0  0  0  0  0  0  0  0  0
   14.9288  -19.4900    0.0637 H   0  0  0  0  0  0  0  0  0  0  0  0
   14.7297  -18.0993    0.8956 H   0  0  0  0  0  0  0  0  0  0  0  0
   14.7572  -18.0775   -0.7368 H   0  0  0  0  0  0  0  0  0  0  0  0
   13.2554  -20.7745    0.0138 H   0  0  0  0  0  0  0  0  0  0  0  0
   11.9601  -20.2345   -0.8206 H   0  0  0  0  0  0  0  0  0  0  0  0
   11.9268  -20.2608    0.8116 H   0  0  0  0  0  0  0  0  0  0  0  0
  1  2  2  0  0  0  0
  3  4  1  0  0  0  0
  1  6  1  0  0  0  0
  2  5  1  0  0  0  0
  5  3  2  0  0  0  0
  4  6  2  0  0  0  0
  6  7  1  0  0  0  0
  7  8  1  0  0  0  0
  7  9  1  0  0  0  0
  5 10  1  0  0  0  0
 10 11  1  0  0  0  0
 10 12  2  0  0  0  0
 11 13  2  0  0  0  0
 14 15  1  0  0  0  0
 11 17  1  0  0  0  0
 13 16  1  0  0  0  0
 16 14  2  0  0  0  0
 15 17  2  0  0  0  0
 12 18  1  0  0  0  0
 12 22  1  0  0  0  0
 18 19  2  0  0  0  0
 19 20  1  0  0  0  0
 20 21  1  0  0  0  0
 21 22  2  0  0  0  0
 14 23  1  0  0  0  0
 20 24  2  0  0  0  0
 23 25  1  0  0  0  0
 23 26  1  0  0  0  0
 24 27  1  0  0  0  0
 24 28  1  0  0  0  0
  1 29  1  0  0  0  0
  2 30  1  0  0  0  0
  3 31  1  0  0  0  0
  4 32  1  0  0  0  0
  8 33  1  0  0  0  0
  8 34  1  0  0  0  0
  8 35  1  0  0  0  0
  9 36  1  0  0  0  0
  9 37  1  0  0  0  0
  9 38  1  0  0  0  0
 13 39  1  0  0  0  0
 15 40  1  0  0  0  0
 16 41  1  0  0  0  0
 17 42  1  0  0  0  0
 18 43  1  0  0  0  0
 19 44  1  0  0  0  0
 21 45  1  0  0  0  0
 22 46  1  0  0  0  0
 25 47  1  0  0  0  0
 25 48  1  0  0  0  0
 25 49  1  0  0  0  0
 26 50  1  0  0  0  0
 26 51  1  0  0  0  0
 26 52  1  0  0  0  0
 27 53  1  0  0  0  0
 27 54  1  0  0  0  0
 27 55  1  0  0  0  0
 28 56  1  0  0  0  0
 28 57  1  0  0  0  0
 28 58  1  0  0  0  0
M  END
>  <Substance ID> (348)
348

>  <Mouse_Female_Canc> (348)
3

>  <SAL> (348)
1

>  <Rat_Male_Canc> (348)
ND

>  <TD50_Rat> (348)
ND

>  <TD50_Mouse> (348)
90.5

>  <Rat_Female_Canc> (348)
ND

>  <Canc> (348)
3

>  <MolWeight> (348)
372.53

>  <Mouse_Male_Canc> (348)
3

>  <Mouse_Male_NTP> (348)
ND

>  <ChemName> (348)
Gentian violet

>  <Rat_Male_NTP> (348)
ND

>  <Reference> (348)
CPDB

>  <Formula> (348)
C25H30N3+

>  <SMILES> (348)
CN(C1=CC=C(C=C1)C(=C2C=CC(=[N+](C)C)C=C2)C3=CC=C(C=C3)N(C)C)C

>  <Rat_Female_NTP> (348)
ND

>  <CAS> (348)
548-62-9

>  <Mouse_Female_NTP> (348)
ND

>  <Synonyms> (348)
((4-bis(p-(dimethylamino)phenyl)methylene)-2,5-cyclohexadien-1-ylidene)dimethylammonium chloride; pararosaniline, N,N,N',N',N'',N''-hexamethyl-, chloride; adergon; aizen crystal violet; Andergon; Axuris; Badil; Basic Violet 3; basic violet bn; Aniline violet; aniline violet pyoktanine; bismuth violet; brilliant violet 58; Brilliant Violet 5B; calcozine violet 6bn; calcozine violet c; C.I. 42555; C.I. basic violet 3; crystal violet; crystal violet 10b; crystal violet 5bo; crystal violet 6b; crystal violet 6bo; crystal violet ao; crystal violet aon; crystal violet base; crystal violet bpc; crystal violet fn; crystal violet hl2; crystal violet o; crystal violet ss; genetian violet; gentersal; Gentiaverm; Hectograph violet; hectograph violet sr; hecto violet r; hexamethylparaosaniline chloride; hexamethyl-p-rosaniline chloride; hexamethyl-p-rosaniline hydrochloride; Hexamethyl Violet; hidaco crystal violet; Meroxyl; Meroxylan; meroxylanwander; Methanaminium, N-[4-[bis[4-(dimethylamino)phenyl]methylene]-2,5-cyclohexadien-1-ylidene]-N-methyl-, chloride; Methylrosanilinium chloride; Methylrosaniline Chloride; methyl violet 10b; methyl violet 10bd; methyl violet 10bk; methyl violet 10bn; Methyl Violet 10BNS; methyl violet 10bo; methyl violet 5bno; methyl violet 5bo; mitsui crystal violet; paper blue r; plastoresin violet 5bo; Pyoktanin; Vianin; Viocid; violet 5bo; violet 6bn; violet cp.

$$$$
349


 44 48  0  0  0  0  0  0  0  0999 V2000
   -8.2206    0.6935    0.1707 C   0  0  0  0  0  0  0  0  0  1  0  0
   -8.2276   -0.7100    0.1971 C   0  0  0  0  0  0  0  0  0  2  0  0
   -7.0571   -1.4143    0.2262 O   0  0  0  0  0  0  0  0  0  3  0  0
   -5.8996   -0.6956    0.1529 C   0  0  0  0  0  0  0  0  0  4  0  0
   -5.8930    0.7080    0.1225 C   0  0  0  0  0  0  0  0  0  5  0  0
   -7.0619    1.4136    0.1681 O   0  0  0  0  0  0  0  0  0  6  0  0
   -4.6773   -1.3760    0.1121 C   0  0  0  0  0  0  0  0  0  7  0  0
   -3.4536   -0.7094    0.0405 C   0  0  0  0  0  0  0  0  0  8  0  0
   -3.4388    0.6912    0.0063 C   0  0  0  0  0  0  0  0  0  9  0  0
   -4.6608    1.3813    0.0479 C   0  0  0  0  0  0  0  0  0 10  0  0
   -9.4431    1.3742    0.1523 C   0  0  0  0  0  0  0  0  0 11  0  0
  -10.6687    0.7073    0.1550 C   0  0  0  0  0  0  0  0  0 12  0  0
  -10.6850   -0.6935    0.1749 C   0  0  0  0  0  0  0  0  0 13  0  0
   -9.4621   -1.3836    0.1967 C   0  0  0  0  0  0  0  0  0 14  0  0
   -4.7040    3.1159    0.0109 Cl  0  0  0  0  0  0  0  0  0 15  0  0
   -1.9329    1.5482   -0.0845 Cl  0  0  0  0  0  0  0  0  0 16  0  0
   -2.0100   -1.6645   -0.0026 Cl  0  0  0  0  0  0  0  0  0 17  0  0
   -9.4218   -3.1183    0.2262 Cl  0  0  0  0  0  0  0  0  0 18  0  0
  -12.1945   -1.5500    0.1753 Cl  0  0  0  0  0  0  0  0  0 19  0  0
  -12.1124    1.6629    0.1332 Cl  0  0  0  0  0  0  0  0  0 20  0  0
   -4.7000   -2.4786    0.1403 H   0  0  0  0  0  0  0  0  0 21  0  0
   -9.4191    2.4770    0.1369 H   0  0  0  0  0  0  0  0  0 22  0  0
    5.9055    0.6704   -0.0500 C   0  0  0  0  0  0  0  0  0 23  0  0
    5.9055   -0.7332   -0.0255 C   0  0  0  0  0  0  0  0  0 24  0  0
    7.0622   -1.4560    0.0026 O   0  0  0  0  0  0  0  0  0 25  0  0
    8.2254   -0.7471   -0.0696 C   0  0  0  0  0  0  0  0  0 26  0  0
    8.2413    0.6564   -0.0983 C   0  0  0  0  0  0  0  0  0 27  0  0
    7.0781    1.3720   -0.0529 O   0  0  0  0  0  0  0  0  0 28  0  0
    9.4423   -1.4367   -0.1107 C   0  0  0  0  0  0  0  0  0 29  0  0
   10.6707   -0.7788   -0.1808 C   0  0  0  0  0  0  0  0  0 30  0  0
   10.6960    0.6218   -0.2130 C   0  0  0  0  0  0  0  0  0 31  0  0
    9.4788    1.3206   -0.1714 C   0  0  0  0  0  0  0  0  0 32  0  0
    4.6743    1.3497   -0.0661 C   0  0  0  0  0  0  0  0  0 33  0  0
    3.4482    0.6654   -0.0640 C   0  0  0  0  0  0  0  0  0 34  0  0
    3.4574   -0.7355   -0.0471 C   0  0  0  0  0  0  0  0  0 35  0  0
    4.6797   -1.4082   -0.0267 C   0  0  0  0  0  0  0  0  0 36  0  0
    9.4498    3.0556   -0.2066 Cl  0  0  0  0  0  0  0  0  0 37  0  0
   12.2095    1.4664   -0.3012 Cl  0  0  0  0  0  0  0  0  0 38  0  0
   12.1069   -1.7451   -0.2242 Cl  0  0  0  0  0  0  0  0  0 39  0  0
    2.0091   -1.6846   -0.0461 Cl  0  0  0  0  0  0  0  0  0 40  0  0
    1.9435    1.5292   -0.0823 Cl  0  0  0  0  0  0  0  0  0 41  0  0
    4.7235    3.0844   -0.0865 Cl  0  0  0  0  0  0  0  0  0 42  0  0
    9.4117   -2.5391   -0.0838 H   0  0  0  0  0  0  0  0  0 43  0  0
    4.6983   -2.5111   -0.0088 H   0  0  0  0  0  0  0  0  0 44  0  0
  1  2  2  0  0  0  0
  1  6  1  0  0  0  0
  1 11  1  0  0  0  0
  2  3  1  0  0  0  0
  2 14  1  0  0  0  0
  3  4  1  0  0  0  0
  4  5  2  0  0  0  0
  4  7  1  0  0  0  0
  5  6  1  0  0  0  0
  5 10  1  0  0  0  0
  7  8  2  0  0  0  0
  7 21  1  0  0  0  0
  8  9  1  0  0  0  0
  8 17  1  0  0  0  0
  9 10  2  0  0  0  0
  9 16  1  0  0  0  0
 10 15  1  0  0  0  0
 11 12  2  0  0  0  0
 11 22  1  0  0  0  0
 12 13  1  0  0  0  0
 12 20  1  0  0  0  0
 13 14  2  0  0  0  0
 13 19  1  0  0  0  0
 14 18  1  0  0  0  0
 23 24  2  0  0  0  0
 23 28  1  0  0  0  0
 23 33  1  0  0  0  0
 24 25  1  0  0  0  0
 24 36  1  0  0  0  0
 25 26  1  0  0  0  0
 26 27  2  0  0  0  0
 26 29  1  0  0  0  0
 27 28  1  0  0  0  0
 27 32  1  0  0  0  0
 29 30  2  0  0  0  0
 29 43  1  0  0  0  0
 30 31  1  0  0  0  0
 30 39  1  0  0  0  0
 31 32  2  0  0  0  0
 31 38  1  0  0  0  0
 32 37  1  0  0  0  0
 33 34  2  0  0  0  0
 33 42  1  0  0  0  0
 34 35  1  0  0  0  0
 34 41  1  0  0  0  0
 35 36  2  0  0  0  0
 35 40  1  0  0  0  0
 36 44  1  0  0  0  0
M  END
>  <Substance ID> (349)
349

>  <Mouse_Female_Canc> (349)
3

>  <SAL> (349)
ND

>  <Rat_Male_Canc> (349)
2

>  <TD50_Rat> (349)
5.96E-04

>  <TD50_Mouse> (349)
1.43E-03

>  <Rat_Female_Canc> (349)
3

>  <Canc> (349)
3

>  <MolWeight> (349)
390.84

>  <Mouse_Male_Canc> (349)
3

>  <Mouse_Male_NTP> (349)
ND

>  <ChemName> (349)
HCDD mixture

>  <Rat_Male_NTP> (349)
ND

>  <Reference> (349)
NTP198 & NTP202

>  <Formula> (349)
C12H2Cl6O2.C12H2Cl6O2  

>  <SMILES> (349)
Clc2cc1Oc3c(Oc1c(Cl)c2Cl)cc(Cl)c(Cl)c3Cl.Clc2cc1Oc3cc(Cl)c(Cl)c(Cl)c3Oc1c(Cl)c2Cl

>  <Rat_Female_NTP> (349)
ND

>  <CAS> (349)
57653-85-7 & 19408-74-3 (34465-46-8) 

>  <Mouse_Female_NTP> (349)
ND

>  <Synonyms> (349)
Dibenzo(b,e)(1,4)dioxin, hexachloro-; H6CDD; HCDD; Hexachlorodibenzo-p-dioxin; Hexachlorodibenzodioxin; HxCDD, 2,3,7,8-.

$$$$
350


 16 15  0  0  0  0  0  0  0  0999 V2000
    1.4164  -35.4167   -0.2211 C   0  0  0  0  0  0  0  0  0  0  0  0
    1.2749  -36.9361    0.0880 C   0  0  0  0  0  0  0  0  0  0  0  0
    2.6348  -34.8627    0.2849 O   0  0  0  0  0  0  0  0  0  0  0  0
    2.4185  -37.6911   -0.3250 O   0  0  0  0  0  0  0  0  0  0  0  0
    3.6162  -34.8059   -0.7676 C   0  0  0  0  0  0  0  0  0  0  0  0
    3.2977  -37.8949    0.7974 C   0  0  0  0  0  0  0  0  0  0  0  0
    5.1304  -34.1660   -0.1245 Cl  0  0  0  0  0  0  0  0  0  0  0  0
    4.7276  -38.7849    0.2688 Cl  0  0  0  0  0  0  0  0  0  0  0  0
    1.3939  -35.2884   -1.2126 H   0  0  0  0  0  0  0  0  0  0  0  0
    0.6472  -34.9324    0.1957 H   0  0  0  0  0  0  0  0  0  0  0  0
    1.1537  -37.0522    1.0739 H   0  0  0  0  0  0  0  0  0  0  0  0
    0.4699  -37.2865   -0.3908 H   0  0  0  0  0  0  0  0  0  0  0  0
    3.7700  -35.7251   -1.1300 H   0  0  0  0  0  0  0  0  0  0  0  0
    3.2863  -34.2094   -1.4992 H   0  0  0  0  0  0  0  0  0  0  0  0
    3.5749  -37.0089    1.1690 H   0  0  0  0  0  0  0  0  0  0  0  0
    2.8211  -38.4187    1.5034 H   0  0  0  0  0  0  0  0  0  0  0  0
  1  2  1  0  0  0  0
  1  3  1  0  0  0  0
  2  4  1  0  0  0  0
  3  5  1  0  0  0  0
  4  6  1  0  0  0  0
  5  7  1  0  0  0  0
  6  8  1  0  0  0  0
  1  9  1  0  0  0  0
  1 10  1  0  0  0  0
  2 11  1  0  0  0  0
  2 12  1  0  0  0  0
  5 13  1  0  0  0  0
  5 14  1  0  0  0  0
  6 15  1  0  0  0  0
  6 16  1  0  0  0  0
M  END
>  <Substance ID> (350)
350

>  <Mouse_Female_Canc> (350)
3

>  <SAL> (350)
ND

>  <Rat_Male_Canc> (350)
ND

>  <TD50_Rat> (350)
ND

>  <TD50_Mouse> (350)
4.62

>  <Rat_Female_Canc> (350)
ND

>  <Canc> (350)
3

>  <MolWeight> (350)
159.01

>  <Mouse_Male_Canc> (350)
ND

>  <Mouse_Male_NTP> (350)
ND

>  <ChemName> (350)
1,2-Bis(chloromethoxy)ethane

>  <Rat_Male_NTP> (350)
ND

>  <Reference> (350)
CPDB

>  <Formula> (350)
C4H8Cl2O2

>  <SMILES> (350)
C(COCCl)OCCl

>  <Rat_Female_NTP> (350)
ND

>  <CAS> (350)
13483-18-6

>  <Mouse_Female_NTP> (350)
ND

>  <Synonyms> (350)
-

$$$$
351 
 

 22 26  0  0  0  0  0  0  0  0999 V2000
    3.8394    3.0080    0.0000 C   0  0  1  0  0  0  0  0  0  0  0  0
    4.5242    4.0045    0.0000 C   0  0  1  0  0  0  0  0  0  0  0  0
    2.0603    3.0141    0.0000 C   0  0  2  0  0  0  0  0  0  0  0  0
    3.8578    1.3818    0.0000 C   0  0  1  0  0  0  0  0  0  0  0  0
    4.9644    3.0203    0.0000 Cl  0  0  0  0  0  0  0  0  0  0  0  0
    2.5800    4.0045    0.0000 C   0  0  2  0  0  0  0  0  0  0  0  0
    4.5179    2.2254    0.0000 C   0  0  1  0  0  0  0  0  0  0  0  0
    4.9766    4.6402    0.0000 Cl  0  0  0  0  0  0  0  0  0  0  0  0
    2.0603    1.3878    0.0000 C   0  0  1  0  0  0  0  0  0  0  0  0
    0.9293    4.3714    0.0000 C   0  0  0  0  0  0  0  0  0  0  0  0
    0.6603    3.0080    0.0000 Cl  0  0  0  0  0  0  0  0  0  0  0  0
    5.1782    0.8437    0.0000 C   0  0  0  0  0  0  0  0  0  0  0  0
    3.2830    0.5136    0.0000 Cl  0  0  0  0  0  0  0  0  0  0  0  0
    2.5800    2.2193    0.0000 C   0  0  1  0  0  0  0  0  0  0  0  0
    3.0875    4.7016    0.0000 Cl  0  0  0  0  0  0  0  0  0  0  0  0
    5.4898    2.4700    0.0000 Cl  0  0  0  0  0  0  0  0  0  0  0  0
    1.6507    0.6481    0.0000 Cl  0  0  0  0  0  0  0  0  0  0  0  0
    0.9293    5.0927    0.0000 Cl  0  0  0  0  0  0  0  0  0  0  0  0
    0.0000    4.3775    0.0000 Cl  0  0  0  0  0  0  0  0  0  0  0  0
    6.1134    0.8498    0.0000 Cl  0  0  0  0  0  0  0  0  0  0  0  0
    5.1782    0.0000    0.0000 Cl  0  0  0  0  0  0  0  0  0  0  0  0
    1.5468    2.4883    0.0000 Cl  0  0  0  0  0  0  0  0  0  0  0  0
  1  2  1  0  0  0  0
  1  3  1  0  0  0  0
  1  4  1  0  0  0  0
  1  5  1  1  0  0  0
  2  6  1  0  0  0  0
  2  7  1  0  0  0  0
  2  8  1  6  0  0  0
  3  9  1  0  0  0  0
  3 10  1  0  0  0  0
  3 11  1  1  0  0  0
  4 12  1  0  0  0  0
  4 13  1  1  0  0  0
  4  9  1  0  0  0  0
  6 14  1  0  0  0  0
  6 15  1  6  0  0  0
  6 10  1  0  0  0  0
  7 16  1  6  0  0  0
  7 12  1  0  0  0  0
  7 14  1  0  0  0  0
  9 17  1  1  0  0  0
  9 14  1  0  0  0  0
 10 18  1  0  0  0  0
 10 19  1  0  0  0  0
 12 20  1  0  0  0  0
 12 21  1  0  0  0  0
 14 22  1  6  0  0  0
M  END
>  <Substance ID> (351)
351

>  <Mouse_Female_Canc> (351)
ND

>  <SAL> (351)
ND

>  <Rat_Male_Canc> (351)
3

>  <TD50_Rat> (351)
1.46

>  <TD50_Mouse> (351)
ND

>  <Rat_Female_Canc> (351)
ND

>  <Canc> (351)
3

>  <MolWeight> (351)
545.55

>  <Mouse_Male_Canc> (351)
ND

>  <Mouse_Male_NTP> (351)
ND

>  <ChemName> (351)
Photomirex

>  <Rat_Male_NTP> (351)
ND

>  <Reference> (351)
CPDB

>  <Formula> (351)
C10Cl12

>  <SMILES> (351)
Cl[C@]54C(Cl)(Cl)[C@]1(Cl)[C@]2(Cl)[C@@]5(Cl)[C@]3(Cl)[C@@]4(Cl)[C@@]1(Cl)[C@@]2(Cl)C3(Cl)Cl

>  <Rat_Female_NTP> (351)
ND

>  <CAS> (351)
39801-14-4

>  <Mouse_Female_NTP> (351)
ND

>  <Synonyms> (351)
-

$$$$
352


 26 26  0  0  0  0  0  0  0  0999 V2000
    7.8881  -51.9752    0.0412 C   0  0  0  0  0  0  0  0  0  0  0  0
    9.2155  -52.0065    0.0466 C   0  0  0  0  0  0  0  0  0  0  0  0
    9.3480  -49.5936    0.0117 C   0  0  0  0  0  0  0  0  0  0  0  0
    7.8635  -49.5568    0.0063 C   0  0  0  0  0  0  0  0  0  0  0  0
    9.9816  -50.7645    0.0306 C   0  0  0  0  0  0  0  0  0  0  0  0
    7.1753  -50.7074    0.0199 C   0  0  0  0  0  0  0  0  0  0  0  0
   11.4881  -50.8623    0.0347 C   0  0  0  0  0  0  0  0  0  0  0  0
   12.1259  -49.5870   -0.0094 O   0  0  0  0  0  0  0  0  0  0  0  0
   13.5449  -49.8169   -0.0122 C   0  0  0  0  0  0  0  0  0  0  0  0
   14.4225  -48.2871   -0.0829 Cl  0  0  0  0  0  0  0  0  0  0  0  0
    5.6685  -50.7319    0.0133 C   0  0  0  0  0  0  0  0  0  0  0  0
    5.0876  -49.4305   -0.0151 O   0  0  0  0  0  0  0  0  0  0  0  0
    3.6601  -49.5961   -0.0239 C   0  0  0  0  0  0  0  0  0  0  0  0
    2.8520  -48.0275   -0.0619 Cl  0  0  0  0  0  0  0  0  0  0  0  0
    7.3730  -52.8323    0.0518 H   0  0  0  0  0  0  0  0  0  0  0  0
    9.6925  -52.8852    0.0616 H   0  0  0  0  0  0  0  0  0  0  0  0
    9.8706  -48.7411    0.0012 H   0  0  0  0  0  0  0  0  0  0  0  0
    7.3811  -48.6810   -0.0074 H   0  0  0  0  0  0  0  0  0  0  0  0
   11.7752  -51.3341    0.8684 H   0  0  0  0  0  0  0  0  0  0  0  0
   11.7759  -51.3909   -0.7639 H   0  0  0  0  0  0  0  0  0  0  0  0
   13.8004  -50.3038    0.8231 H   0  0  0  0  0  0  0  0  0  0  0  0
   13.7863  -50.3711   -0.8088 H   0  0  0  0  0  0  0  0  0  0  0  0
    5.3621  -51.2346   -0.7950 H   0  0  0  0  0  0  0  0  0  0  0  0
    5.3545  -51.2023    0.8380 H   0  0  0  0  0  0  0  0  0  0  0  0
    3.3954  -50.1215   -0.8325 H   0  0  0  0  0  0  0  0  0  0  0  0
    3.3816  -50.0891    0.8004 H   0  0  0  0  0  0  0  0  0  0  0  0
  1  2  2  0  0  0  0
  3  4  1  0  0  0  0
  1  6  1  0  0  0  0
  2  5  1  0  0  0  0
  5  3  2  0  0  0  0
  4  6  2  0  0  0  0
  5  7  1  0  0  0  0
  7  8  1  0  0  0  0
  8  9  1  0  0  0  0
  9 10  1  0  0  0  0
  6 11  1  0  0  0  0
 11 12  1  0  0  0  0
 12 13  1  0  0  0  0
 13 14  1  0  0  0  0
  1 15  1  0  0  0  0
  2 16  1  0  0  0  0
  3 17  1  0  0  0  0
  4 18  1  0  0  0  0
  7 19  1  0  0  0  0
  7 20  1  0  0  0  0
  9 21  1  0  0  0  0
  9 22  1  0  0  0  0
 11 23  1  0  0  0  0
 11 24  1  0  0  0  0
 13 25  1  0  0  0  0
 13 26  1  0  0  0  0
M  END
>  <Substance ID> (352)
352

>  <Mouse_Female_Canc> (352)
3

>  <SAL> (352)
ND

>  <Rat_Male_Canc> (352)
ND

>  <TD50_Rat> (352)
ND

>  <TD50_Mouse> (352)
3.11

>  <Rat_Female_Canc> (352)
ND

>  <Canc> (352)
3

>  <MolWeight> (352)
235.11

>  <Mouse_Male_Canc> (352)
ND

>  <Mouse_Male_NTP> (352)
ND

>  <ChemName> (352)
1,4-Bis(chloromethoxy)-p-xylene

>  <Rat_Male_NTP> (352)
ND

>  <Reference> (352)
CPDB

>  <Formula> (352)
C10H12Cl2O2

>  <SMILES> (352)
C1=CC(=CC=C1COCCl)COCCl

>  <Rat_Female_NTP> (352)
ND

>  <CAS> (352)
56894-91-8

>  <Mouse_Female_NTP> (352)
ND

>  <Synonyms> (352)
1,4-Bis(chloromethoxymethyl)benzene.

$$$$
353


 29 29  0  0  0  0  0  0  0  0999 V2000
    2.5656  -57.7664    0.0756 C   0  0  0  0  0  0  0  0  0  0  0  0
    2.1689  -59.2513    0.0941 C   0  0  0  0  0  0  0  0  0  0  0  0
    3.3638  -60.1216   -0.3250 C   0  0  0  0  0  0  0  0  0  0  0  0
    4.5876  -59.7017    0.3620 N   0  0  0  0  0  0  0  0  0  0  0  0
    4.9188  -58.2067   -0.0185 P   0  0  2  0  0  0  0  0  0  0  0  0
    3.7352  -57.5719   -0.7242 O   0  0  0  0  0  0  0  0  0  0  0  0
    6.2669  -58.0281   -0.7057 N   0  0  0  0  0  0  0  0  0  0  0  0
    5.7070  -60.6107    0.0442 C   0  0  0  0  0  0  0  0  0  0  0  0
    5.0014  -57.6586    1.2049 O   0  0  0  0  0  0  0  0  0  0  0  0
    7.4793  -57.7431    0.0423 C   0  0  0  0  0  0  0  0  0  0  0  0
    8.6730  -58.1581   -0.8328 C   0  0  0  0  0  0  0  0  0  0  0  0
   10.1705  -58.0570    0.0935 Cl  0  0  0  0  0  0  0  0  0  0  0  0
    5.4177  -62.0348    0.5228 C   0  0  0  0  0  0  0  0  0  0  0  0
    6.8250  -63.0384    0.1646 Cl  0  0  0  0  0  0  0  0  0  0  0  0
    1.8130  -57.2293   -0.3055 H   0  0  0  0  0  0  0  0  0  0  0  0
    2.7518  -57.4638    1.0103 H   0  0  0  0  0  0  0  0  0  0  0  0
    1.8823  -59.5056    1.0178 H   0  0  0  0  0  0  0  0  0  0  0  0
    1.4123  -59.3994   -0.5428 H   0  0  0  0  0  0  0  0  0  0  0  0
    3.1703  -61.0752   -0.0940 H   0  0  0  0  0  0  0  0  0  0  0  0
    3.4984  -60.0381   -1.3124 H   0  0  0  0  0  0  0  0  0  0  0  0
    6.3188  -58.1095   -1.7010 H   0  0  0  0  0  0  0  0  0  0  0  0
    5.8469  -60.6218   -0.9459 H   0  0  0  0  0  0  0  0  0  0  0  0
    6.5353  -60.2776    0.4947 H   0  0  0  0  0  0  0  0  0  0  0  0
    7.5311  -56.7659    0.2483 H   0  0  0  0  0  0  0  0  0  0  0  0
    7.4843  -58.2648    0.8954 H   0  0  0  0  0  0  0  0  0  0  0  0
    8.5415  -59.0985   -1.1464 H   0  0  0  0  0  0  0  0  0  0  0  0
    8.7315  -57.5479   -1.6228 H   0  0  0  0  0  0  0  0  0  0  0  0
    5.2468  -62.0319    1.5081 H   0  0  0  0  0  0  0  0  0  0  0  0
    4.6158  -62.3950    0.0460 H   0  0  0  0  0  0  0  0  0  0  0  0
  1  2  1  0  0  0  0
  1  6  1  0  0  0  0
  2  3  1  0  0  0  0
  3  4  1  0  0  0  0
  4  5  1  0  0  0  0
  5  6  1  0  0  0  0
  5  7  1  0  0  0  0
  4  8  1  0  0  0  0
  5  9  2  0  0  0  0
  7 10  1  0  0  0  0
 10 11  1  0  0  0  0
 11 12  1  0  0  0  0
  8 13  1  0  0  0  0
 13 14  1  0  0  0  0
  1 15  1  0  0  0  0
  1 16  1  0  0  0  0
  2 17  1  0  0  0  0
  2 18  1  0  0  0  0
  3 19  1  0  0  0  0
  3 20  1  0  0  0  0
  7 21  1  0  0  0  0
  8 22  1  0  0  0  0
  8 23  1  0  0  0  0
 10 24  1  0  0  0  0
 10 25  1  0  0  0  0
 11 26  1  0  0  0  0
 11 27  1  0  0  0  0
 13 28  1  0  0  0  0
 13 29  1  0  0  0  0
M  END
>  <Substance ID> (353)
353

>  <Mouse_Female_Canc> (353)
3

>  <SAL> (353)
3

>  <Rat_Male_Canc> (353)
1

>  <TD50_Rat> (353)
0.739

>  <TD50_Mouse> (353)
5.06

>  <Rat_Female_Canc> (353)
3

>  <Canc> (353)
3

>  <MolWeight> (353)
261.09

>  <Mouse_Male_Canc> (353)
1

>  <Mouse_Male_NTP> (353)
ND

>  <ChemName> (353)
Isophosphamide

>  <Rat_Male_NTP> (353)
ND

>  <Reference> (353)
NTP32

>  <Formula> (353)
C7H15Cl2N2O2P

>  <SMILES> (353)
ClCCN[P]1(=O)OCCCN1CCCl

>  <Rat_Female_NTP> (353)
ND

>  <CAS> (353)
3778-73-2

>  <Mouse_Female_NTP> (353)
ND

>  <Synonyms> (353)
1,3,2-Oxazaphosphorine, 3-(2-chloroethyl)-2-[(2-chloroethyl)amino]tetrahydro-, 2-oxide; 2,3-N,N(sup 1)-Bis(2-chloroethyl)diamido-1,3,2-oxazaphosphoridinoxy-; 2H-1,3,2-Oxazaphosphorin-2-amine, N,3-bis(2-chloroethyl)tetrahydro-, 2-oxide; 3-(2-Chloroethyl)-2-[(2-chloroethyl)amino]perhydro-2H-1,3,2-oxazaphosphorineoxide; 3-(2-Chloroethyl)-2-[(2-chloroethyl)amino]tetrahydro-2H-1,3,2-oxazaphosphorine 2-oxide; A 4942; Asta Z 4942; Cyfos; Holoxan; Holoxan 1000; Ifex; Ifosfamid; Iphosphamid; Iphosphamid(e); Isoendoxan; Isofosfamide; Mitoxana; MJF 9325; N-(2-Chloroethyl)-N'-(2-chloroethyl)-N',O-propylenephosphoric acid diamide; N-(2-Chloroethyl)-N'-(2-chloroethyl)-N',O-propylene phosphoric acid ester diamide; Naxamide; Z4942.

$$$$
354


 15 14  0  0  0  0  0  0  0  0999 V2000
    1.3794  -68.5641   -0.0002 Cl  0  0  0  0  0  0  0  0  0  0  0  0
    2.8112  -67.5311   -0.0000 C   0  0  0  0  0  0  0  0  0  0  0  0
    4.0743  -68.4105    0.0000 C   0  0  0  0  0  0  0  0  0  0  0  0
    5.2352  -67.5799    0.0002 O   0  0  0  0  0  0  0  0  0  0  0  0
    6.4012  -68.4033    0.0002 C   0  0  0  0  0  0  0  0  0  0  0  0
    7.6588  -67.5160    0.0003 C   0  0  0  0  0  0  0  0  0  0  0  0
    9.0970  -68.5400    0.0003 Cl  0  0  0  0  0  0  0  0  0  0  0  0
    2.8064  -66.9539   -0.8166 H   0  0  0  0  0  0  0  0  0  0  0  0
    2.8063  -66.9540    0.8167 H   0  0  0  0  0  0  0  0  0  0  0  0
    4.0779  -68.9877    0.8166 H   0  0  0  0  0  0  0  0  0  0  0  0
    4.0780  -68.9876   -0.8167 H   0  0  0  0  0  0  0  0  0  0  0  0
    6.4011  -68.9805    0.8168 H   0  0  0  0  0  0  0  0  0  0  0  0
    6.4012  -68.9803   -0.8165 H   0  0  0  0  0  0  0  0  0  0  0  0
    7.6601  -66.9388   -0.8163 H   0  0  0  0  0  0  0  0  0  0  0  0
    7.6600  -66.9389    0.8170 H   0  0  0  0  0  0  0  0  0  0  0  0
  1  2  1  0  0  0  0
  2  3  1  0  0  0  0
  3  4  1  0  0  0  0
  4  5  1  0  0  0  0
  5  6  1  0  0  0  0
  6  7  1  0  0  0  0
  2  8  1  0  0  0  0
  2  9  1  0  0  0  0
  3 10  1  0  0  0  0
  3 11  1  0  0  0  0
  5 12  1  0  0  0  0
  5 13  1  0  0  0  0
  6 14  1  0  0  0  0
  6 15  1  0  0  0  0
M  END
>  <Substance ID> (354)
354

>  <Mouse_Female_Canc> (354)
3

>  <SAL> (354)
3

>  <Rat_Male_Canc> (354)
1

>  <TD50_Rat> (354)
NP

>  <TD50_Mouse> (354)
11.7

>  <Rat_Female_Canc> (354)
1

>  <Canc> (354)
3

>  <MolWeight> (354)
143.01

>  <Mouse_Male_Canc> (354)
3

>  <Mouse_Male_NTP> (354)
ND

>  <ChemName> (354)
Bis(2-chloroethyl)ether

>  <Rat_Male_NTP> (354)
ND

>  <Reference> (354)
Toxnet

>  <Formula> (354)
C4H8Cl2O

>  <SMILES> (354)
ClCCOCCCl

>  <Rat_Female_NTP> (354)
ND

>  <CAS> (354)
111-44-4

>  <Mouse_Female_NTP> (354)
ND

>  <Synonyms> (354)
1,1-oxybis[2-chloroethane]; 1,1'-Oxybis(2-Chloroethane); 1,5-Dichloro-3-oxapentane; 1-Chloro-2-(beta-chloroethoxy)ethane; 2,2'-dichlorodiethylether; 2,2'-dichloroethyl ether; 2-chloroethyl ether; beta,beta'-dichlorodiethyl ether; beta,beta'-dichloroethyl ether; BCEE; bis(beta-chloroethyl) ether; Dichloroether; Bis(chloroethyl)ether; Di(chloroethyl) oxide; chloroethyl ether; Chlorex; clorex; DCEE; Oxybis(2-chloroethane); sym-Dichloroethyl Ether.

$$$$
355


 17 17  0  0  0  0  0  0  0  0999 V2000
    2.1220  -76.3094    0.0297 C   0  0  0  0  0  0  0  0  0  0  0  0
    2.2019  -77.6372   -0.0260 C   0  0  0  0  0  0  0  0  0  0  0  0
    4.5917  -77.5032    0.0431 C   0  0  0  0  0  0  0  0  0  0  0  0
    4.4446  -76.0554    0.0986 C   0  0  0  0  0  0  0  0  0  0  0  0
    3.5102  -78.2729   -0.0171 C   0  0  0  0  0  0  0  0  0  0  0  0
    3.2880  -75.5230    0.0922 N   0  0  0  0  0  0  0  0  0  0  0  0
    3.5929  -79.7498   -0.0754 C   0  0  0  0  0  0  0  0  0  0  0  0
    4.8530  -80.4842   -0.0422 N   0  0  0  0  0  0  0  0  0  0  0  0
    6.1116  -79.8678    0.0538 N   0  0  0  0  0  0  0  0  0  0  0  0
    2.5406  -80.3939   -0.1540 O   0  0  0  0  0  0  0  0  0  0  0  0
    1.2254  -75.8665    0.0271 H   0  0  0  0  0  0  0  0  0  0  0  0
    1.3711  -78.1917   -0.0735 H   0  0  0  0  0  0  0  0  0  0  0  0
    5.5024  -77.9162    0.0503 H   0  0  0  0  0  0  0  0  0  0  0  0
    5.2578  -75.4751    0.1419 H   0  0  0  0  0  0  0  0  0  0  0  0
    4.8189  -81.4824   -0.0905 H   0  0  0  0  0  0  0  0  0  0  0  0
    6.9414  -80.4255    0.0722 H   0  0  0  0  0  0  0  0  0  0  0  0
    6.1778  -78.8712    0.1038 H   0  0  0  0  0  0  0  0  0  0  0  0
  1  2  2  0  0  0  0
  3  4  1  0  0  0  0
  1  6  1  0  0  0  0
  2  5  1  0  0  0  0
  5  3  2  0  0  0  0
  4  6  2  0  0  0  0
  5  7  1  0  0  0  0
  7  8  1  0  0  0  0
  8  9  1  0  0  0  0
  7 10  2  0  0  0  0
  1 11  1  0  0  0  0
  2 12  1  0  0  0  0
  3 13  1  0  0  0  0
  4 14  1  0  0  0  0
  8 15  1  0  0  0  0
  9 16  1  0  0  0  0
  9 17  1  0  0  0  0
M  END
>  <Substance ID> (355)
355

>  <Mouse_Female_Canc> (355)
3

>  <SAL> (355)
3

>  <Rat_Male_Canc> (355)
3

>  <TD50_Rat> (355)
150

>  <TD50_Mouse> (355)
27.1

>  <Rat_Female_Canc> (355)
3

>  <Canc> (355)
3

>  <MolWeight> (355)
137.14

>  <Mouse_Male_Canc> (355)
3

>  <Mouse_Male_NTP> (355)
ND

>  <ChemName> (355)
Isoniazid

>  <Rat_Male_NTP> (355)
ND

>  <Reference> (355)
CPDB

>  <Formula> (355)
C6H7N3O

>  <SMILES> (355)
O=C(C1=CC=NC=C1)NN

>  <Rat_Female_NTP> (355)
ND

>  <CAS> (355)
54-85-3

>  <Mouse_Female_NTP> (355)
ND

>  <Synonyms> (355)
4-Pyridinecarboxylic acid hydrazide; 5015 rp; Abdizide; andrazide; Anidrasona; Antimicina; antituberkulosum; armacide; armazide; atcotibine; azuren; bacillen; dibutin; diforin; Dinacrin; Ditubin; bp 5015; Cedin; cemidon; chemiazid; chemidon; Continazine; cortinazine; cotinazin; cotinizin; defonin; ebidene; eralon; Ertuban; eutizon; evalon; Fetefu; fimalene; FRS-3; FSR 3; GINK; HIA; hidranizil; Hidrasonil; hidrulta; hidrun; Hycozid; Hydra; Hydrazid; hyozid; Hyzyd; I.A.I.; ido-tebin; idrazil; IN-73; INAH; INH; INH-Burgthal; inizid; iscotin; Isidrina; ismazide; Isobicina; Isocid; isocidene; isocotin; Isokin; isolyn; isonerit; Isonex; isoniacid; Isonicazide; Isonicid; isonico; Isonicotan; isonicotil; Isonicotinic acid hydrazide; isonicotinhydrazid; Isonicotinohydrazide; isonicotinoyl hydrazide; isonicotinoylhydrazine; Isonicotinylhydrazine; isonide; isonidrin; isonikazid; Isonilex; isonin; Isonindon; isonirit; isoniton; isonizide; Isonizida; Isotamine; isotebe; Isotebezid; isotinyl; isozide; Isozyd; laniazid; laniozid; Lanizid; Mybasan; Neoteben; neo-tizide; Neoxin; neumandin; Nevin; Niadrin; Niazid; nicazide; Nicetal; nicizina; Niconyl; nicotibine; Nicotibina; Nicozide; nidaton; nidrazid; Nikozid; Niplen; Nitadon; niteban; nydrazid; Nyscozid; Pelazid; percin; phthisen; preparation 6424; Pycazide; pyreazid; pyridicin; Pyricidin; pyrizidin; Raumanon; razide; Retozide; rimicid; rimifon; Rimitsid; robiselin; robisellin; roxifen; RP 5015; ru-ef-tb; RY-EF-Tb; sanohidrazina; Sauterazid; sauterzid; stanozide; tb-phlogin; tb-razide; TB-Vis; Tebecid; tebemid; tebenic; tebexin; tebilon; Tebos; teebaconin; Tekazin; tibazide; Tibiazide; tibinide; tibison; tibivis; tibizide; tibusan; Tisin; Tisiodrazida; Tizide; tubazide; tubeco; tubercid; tuberian; tubicon; Tubilysin; Tubizid; tubomel; Tyvid; unicocyde; Unicozyde; vazadrine; vederon; zinadon; Zonazide.

$$$$
356


 15 15  0  0  0  0  0  0  0  0999 V2000
    3.8759  -89.4934   -0.0002 N   0  0  0  0  0  0  0  0  0  0  0  0
    5.2994  -89.4868   -0.0004 C   0  0  0  0  0  0  0  0  0  0  0  0
    5.9978  -88.2396    0.0005 N   0  0  0  0  0  0  0  0  0  0  0  0
    5.2694  -86.9997    0.0001 C   0  0  0  0  0  0  0  0  0  0  0  0
    3.9351  -86.9932    0.0004 C   0  0  0  0  0  0  0  0  0  0  0  0
    3.1807  -88.2492    0.0001 C   0  0  0  0  0  0  0  0  0  0  0  0
    6.0188  -85.6981    0.0005 C   0  0  0  0  0  0  0  0  0  0  0  0
    1.9446  -88.2300   -0.0003 O   0  0  0  0  0  0  0  0  0  0  0  0
    6.0932  -90.8352    0.0000 S   0  0  0  0  0  0  0  0  0  0  0  0
    3.3718  -90.3570   -0.0003 H   0  0  0  0  0  0  0  0  0  0  0  0
    6.9977  -88.2293    0.0014 H   0  0  0  0  0  0  0  0  0  0  0  0
    3.4447  -86.1217    0.0008 H   0  0  0  0  0  0  0  0  0  0  0  0
    5.3685  -84.9385    0.0002 H   0  0  0  0  0  0  0  0  0  0  0  0
    6.5942  -85.6440   -0.8156 H   0  0  0  0  0  0  0  0  0  0  0  0
    6.5934  -85.6440    0.8172 H   0  0  0  0  0  0  0  0  0  0  0  0
  1  2  1  0  0  0  0
  1  6  1  0  0  0  0
  2  3  1  0  0  0  0
  3  4  1  0  0  0  0
  4  5  2  0  0  0  0
  5  6  1  0  0  0  0
  4  7  1  0  0  0  0
  6  8  2  0  0  0  0
  2  9  2  0  0  0  0
  1 10  1  0  0  0  0
  3 11  1  0  0  0  0
  5 12  1  0  0  0  0
  7 13  1  0  0  0  0
  7 14  1  0  0  0  0
  7 15  1  0  0  0  0
M  END
>  <Substance ID> (356)
356

>  <Mouse_Female_Canc> (356)
3

>  <SAL> (356)
1

>  <Rat_Male_Canc> (356)
3

>  <TD50_Rat> (356)
ND

>  <TD50_Mouse> (356)
ND

>  <Rat_Female_Canc> (356)
3

>  <Canc> (356)
3

>  <MolWeight> (356)
142.18

>  <Mouse_Male_Canc> (356)
3

>  <Mouse_Male_NTP> (356)
ND

>  <ChemName> (356)
Methylthiouracil

>  <Rat_Male_NTP> (356)
ND

>  <Reference> (356)
IARC

>  <Formula> (356)
C5H6N2OS

>  <SMILES> (356)
CC1=CC(=O)NC(=S)N1

>  <Rat_Female_NTP> (356)
ND

>  <CAS> (356)
56-04-2

>  <Mouse_Female_NTP> (356)
ND

>  <Synonyms> (356)
2,3-dihydro-6-methyl-2-thioxo-4(1H)-Pyrimidinone; 2-mercapto-4-hydroxy-6-methylpyrimidine; tiotiron; 2-mercapto-6-methylpyrimid-4-one; 2-thio-4-oxo-6-methyl-1,3-pyrimidine; 2-thio-6-methyl-pyrimidin-4-one; 4-hydroxy-2-mercapto-6-methylpyrimidine; 6-methyl-2-thiouracil; 6-Methylthiouracil; 6-methyluracil; 6-thio-4-methyluracil; alkiron; antibason; basecil; basethyrin; MTU; muracil; orcanon; prostrumyl; strumacil; thimecil; thiomecil; thiomidil; thiothymin; Thioyl; thyril.

$$$$
357


 37 39  0  0  0  0  0  0  0  0999 V2000
   27.1352  -13.3133   -0.0020 C   0  0  0  0  0  0  0  0  0  0  0  0
   27.2071  -14.7778   -0.0026 C   0  0  0  0  0  0  0  0  0  0  0  0
   28.3921  -15.3844   -0.0025 C   0  0  0  0  0  0  0  0  0  0  0  0
   28.2535  -12.5872   -0.0017 C   0  0  0  0  0  0  0  0  0  0  0  0
   29.5578  -13.2537   -0.0015 C   0  0  0  0  0  0  0  0  0  0  0  0
   29.6244  -14.5873   -0.0010 C   0  0  0  0  0  0  0  0  0  0  0  0
   31.9644  -14.5863    0.0017 C   0  0  0  0  0  0  0  0  0  0  0  0
   31.9626  -13.1191    0.0023 C   0  0  0  0  0  0  0  0  0  0  0  0
   30.8705  -15.2399    0.0006 N   0  0  0  0  0  0  0  0  0  0  0  0
   30.8031  -12.4678    0.0009 C   0  0  0  0  0  0  0  0  0  0  0  0
   30.7842  -10.9813    0.0012 C   0  0  0  0  0  0  0  0  0  0  0  0
   31.9398  -10.3103   -0.0029 C   0  0  0  0  0  0  0  0  0  0  0  0
   32.0023   -8.8284   -0.0008 C   0  0  0  0  0  0  0  0  0  0  0  0
   33.1906   -8.2297   -0.0044 C   0  0  0  0  0  0  0  0  0  0  0  0
   33.2816   -6.7748   -0.0047 C   0  0  0  0  0  0  0  0  0  0  0  0
   32.1854   -6.0161    0.0013 C   0  0  0  0  0  0  0  0  0  0  0  0
   30.8688   -6.6752    0.0061 C   0  0  0  0  0  0  0  0  0  0  0  0
   30.7810   -8.0091    0.0047 C   0  0  0  0  0  0  0  0  0  0  0  0
   32.2602   -4.5805    0.0016 N   0  0  0  0  0  0  0  0  0  0  0  0
   33.4353   -3.8967    0.0002 N   0  0  0  0  0  0  0  0  0  0  0  0
   31.0392   -3.8209    0.0019 C   0  0  0  0  0  0  0  0  0  0  0  0
   34.4901   -4.4171    0.0005 O   0  0  0  0  0  0  0  0  0  0  0  0
   26.2449  -12.8578   -0.0019 H   0  0  0  0  0  0  0  0  0  0  0  0
   26.3670  -15.3203   -0.0030 H   0  0  0  0  0  0  0  0  0  0  0  0
   28.4426  -16.3831   -0.0034 H   0  0  0  0  0  0  0  0  0  0  0  0
   28.2018  -11.5885   -0.0016 H   0  0  0  0  0  0  0  0  0  0  0  0
   32.8345  -15.0793    0.0022 H   0  0  0  0  0  0  0  0  0  0  0  0
   32.8253  -12.6134    0.0037 H   0  0  0  0  0  0  0  0  0  0  0  0
   29.9144  -10.4879    0.0043 H   0  0  0  0  0  0  0  0  0  0  0  0
   32.7957  -10.8274   -0.0075 H   0  0  0  0  0  0  0  0  0  0  0  0
   34.0252   -8.7805   -0.0070 H   0  0  0  0  0  0  0  0  0  0  0  0
   34.1814   -6.3385   -0.0093 H   0  0  0  0  0  0  0  0  0  0  0  0
   30.0358   -6.1220    0.0104 H   0  0  0  0  0  0  0  0  0  0  0  0
   29.8836   -8.4504    0.0074 H   0  0  0  0  0  0  0  0  0  0  0  0
   31.2536   -2.8442    0.0021 H   0  0  0  0  0  0  0  0  0  0  0  0
   30.5068   -4.0450    0.8183 H   0  0  0  0  0  0  0  0  0  0  0  0
   30.5067   -4.0446   -0.8145 H   0  0  0  0  0  0  0  0  0  0  0  0
  1  2  1  0  0  0  0
  1  4  2  0  0  0  0
  2  3  2  0  0  0  0
  3  6  1  0  0  0  0
  5  4  1  0  0  0  0
  5  6  2  0  0  0  0
  7  8  1  0  0  0  0
  5 10  1  0  0  0  0
  6  9  1  0  0  0  0
  9  7  2  0  0  0  0
  8 10  2  0  0  0  0
 10 11  1  0  0  0  0
 11 12  2  0  0  0  0
 12 13  1  0  0  0  0
 13 14  2  0  0  0  0
 14 15  1  0  0  0  0
 15 16  2  0  0  0  0
 16 17  1  0  0  0  0
 17 18  2  0  0  0  0
 18 13  1  0  0  0  0
 16 19  1  0  0  0  0
 19 20  1  0  0  0  0
 19 21  1  0  0  0  0
 20 22  2  0  0  0  0
  1 23  1  0  0  0  0
  2 24  1  0  0  0  0
  3 25  1  0  0  0  0
  4 26  1  0  0  0  0
  7 27  1  0  0  0  0
  8 28  1  0  0  0  0
 11 29  1  0  0  0  0
 12 30  1  0  0  0  0
 14 31  1  0  0  0  0
 15 32  1  0  0  0  0
 17 33  1  0  0  0  0
 18 34  1  0  0  0  0
 21 35  1  0  0  0  0
 21 36  1  0  0  0  0
 21 37  1  0  0  0  0
M  END
>  <Substance ID> (357)
357

>  <Mouse_Female_Canc> (357)
ND

>  <SAL> (357)
ND

>  <Rat_Male_Canc> (357)
3

>  <TD50_Rat> (357)
0.699

>  <TD50_Mouse> (357)
ND

>  <Rat_Female_Canc> (357)
3

>  <Canc> (357)
3

>  <MolWeight> (357)
289.34

>  <Mouse_Male_Canc> (357)
ND

>  <Mouse_Male_NTP> (357)
ND

>  <ChemName> (357)
4-(4-(N-methyl-N-nitrosoamino)styryl)quinoline

>  <Rat_Male_NTP> (357)
ND

>  <Reference> (357)
CPDB

>  <Formula> (357)
C18H15N3O

>  <SMILES> (357)
CN(N=O)C1=CC=C(C=C1)C=CC2=C3C=CC=CC3=NC=C2

>  <Rat_Female_NTP> (357)
ND

>  <CAS> (357)
16699-10-8

>  <Mouse_Female_NTP> (357)
ND

>  <Synonyms> (357)
-

$$$$
358


  5  3  0  0  0  0  0  0  0  0999 V2000
   21.8864  -13.5344   -0.0233 K   0  3  0  0  0  0  0  0  0  1  0  0
   16.0761  -13.5342   -0.1482 O   0  5  0  0  0  0  0  0  0  2  0  0
   17.8115  -13.5316    0.4297 Br  0  0  0  0  0  0  0  0  0  3  0  0
   18.5721  -14.8710   -0.1287 O   0  0  0  0  0  0  0  0  0  4  0  0
   18.5712  -12.1993   -0.1290 O   0  0  0  0  0  0  0  0  0  5  0  0
  2  3  1  0  0  0  0
  3  4  2  0  0  0  0
  3  5  2  0  0  0  0
M  END
>  <Substance ID> (358)
358

>  <Mouse_Female_Canc> (358)
1

>  <SAL> (358)
3

>  <Rat_Male_Canc> (358)
3

>  <TD50_Rat> (358)
9.81

>  <TD50_Mouse> (358)
NP

>  <Rat_Female_Canc> (358)
3

>  <Canc> (358)
3

>  <MolWeight> (358)
167.00

>  <Mouse_Male_Canc> (358)
1

>  <Mouse_Male_NTP> (358)
ND

>  <ChemName> (358)
Potassium bromate

>  <Rat_Male_NTP> (358)
ND

>  <Reference> (358)
CPDB

>  <Formula> (358)
BrO3K

>  <SMILES> (358)
[K+].[O-]Br(=O)=O

>  <Rat_Female_NTP> (358)
ND

>  <CAS> (358)
7758-01-2

>  <Mouse_Female_NTP> (358)
ND

>  <Synonyms> (358)
Bromic acid, potassium salt; POTASSIUM BROMATE BAKER ANAL ACS Rgnt.

$$$$
359


 27 27  0  0  0  0  0  0  0  0999 V2000
   27.2441  -23.4532    0.0593 C   0  0  0  0  0  0  0  0  0  0  0  0
   28.1118  -24.4662    0.0634 C   0  0  0  0  0  0  0  0  0  0  0  0
   29.9890  -22.9318    0.0515 C   0  0  0  0  0  0  0  0  0  0  0  0
   29.0280  -21.8414    0.0725 C   0  0  0  0  0  0  0  0  0  0  0  0
   29.5738  -24.1988    0.0711 C   0  0  0  0  0  0  0  0  0  0  0  0
   27.7267  -22.0801    0.0769 C   0  0  0  0  0  0  0  0  0  0  0  0
   26.6180  -20.7571    0.0760 Cl  0  0  0  0  0  0  0  0  0  0  0  0
   27.5137  -26.0860   -0.0049 Cl  0  0  0  0  0  0  0  0  0  0  0  0
   31.3722  -22.5497   -0.1175 C   0  0  0  0  0  0  0  0  0  0  0  0
   32.5111  -23.5009   -0.0368 N   0  0  0  0  0  0  0  0  0  0  0  0
   33.9126  -23.1049   -0.5066 C   0  0  0  0  0  0  0  0  0  0  0  0
   35.3005  -23.1033   -0.0820 C   0  0  0  0  0  0  0  0  0  0  0  0
   36.4394  -23.1097    0.3124 C   0  0  0  0  0  0  0  0  0  0  0  0
   33.9507  -21.9360    0.4819 C   0  0  0  0  0  0  0  0  0  0  0  0
   34.1410  -24.5771   -0.0721 C   0  0  0  0  0  0  0  0  0  0  0  0
   31.5324  -21.3668   -0.4417 O   0  0  0  0  0  0  0  0  0  0  0  0
   26.2613  -23.6372    0.0442 H   0  0  0  0  0  0  0  0  0  0  0  0
   29.3554  -20.8966    0.0838 H   0  0  0  0  0  0  0  0  0  0  0  0
   30.2313  -24.9521    0.0905 H   0  0  0  0  0  0  0  0  0  0  0  0
   32.3587  -24.4178    0.3319 H   0  0  0  0  0  0  0  0  0  0  0  0
   37.3844  -23.1149    0.6396 H   0  0  0  0  0  0  0  0  0  0  0  0
   34.8219  -21.4532    0.3944 H   0  0  0  0  0  0  0  0  0  0  0  0
   33.8553  -22.2843    1.4144 H   0  0  0  0  0  0  0  0  0  0  0  0
   33.1997  -21.3063    0.2832 H   0  0  0  0  0  0  0  0  0  0  0  0
   35.0985  -24.8243   -0.2209 H   0  0  0  0  0  0  0  0  0  0  0  0
   33.5538  -25.1796   -0.6126 H   0  0  0  0  0  0  0  0  0  0  0  0
   33.9182  -24.6773    0.8976 H   0  0  0  0  0  0  0  0  0  0  0  0
  1  2  2  0  0  0  0
  3  4  1  0  0  0  0
  1  6  1  0  0  0  0
  2  5  1  0  0  0  0
  5  3  2  0  0  0  0
  4  6  2  0  0  0  0
  6  7  1  0  0  0  0
  2  8  1  0  0  0  0
  3  9  1  0  0  0  0
  9 10  1  0  0  0  0
 10 11  1  0  0  0  0
 11 12  1  0  0  0  0
 12 13  3  0  0  0  0
 11 14  1  0  0  0  0
 11 15  1  0  0  0  0
  9 16  2  0  0  0  0
  1 17  1  0  0  0  0
  4 18  1  0  0  0  0
  5 19  1  0  0  0  0
 10 20  1  0  0  0  0
 13 21  1  0  0  0  0
 14 22  1  0  0  0  0
 14 23  1  0  0  0  0
 14 24  1  0  0  0  0
 15 25  1  0  0  0  0
 15 26  1  0  0  0  0
 15 27  1  0  0  0  0
M  END
>  <Substance ID> (359)
359

>  <Mouse_Female_Canc> (359)
ND

>  <SAL> (359)
ND

>  <Rat_Male_Canc> (359)
ND

>  <TD50_Rat> (359)
ND

>  <TD50_Mouse> (359)
119

>  <Rat_Female_Canc> (359)
ND

>  <Canc> (359)
3

>  <MolWeight> (359)
256.13

>  <Mouse_Male_Canc> (359)
3

>  <Mouse_Male_NTP> (359)
ND

>  <ChemName> (359)
3,5-Dichloro-N-(1,1-dimethyl-2-propynyl)benzamide

>  <Rat_Male_NTP> (359)
ND

>  <Reference> (359)
CPDB

>  <Formula> (359)
C12H11Cl2NO

>  <SMILES> (359)
CC(NC(=O)C1=CC(=CC(=C1)Cl)Cl)(C#C)C

>  <Rat_Female_NTP> (359)
ND

>  <CAS> (359)
23950-58-5

>  <Mouse_Female_NTP> (359)
ND

>  <Synonyms> (359)
Kerb; Kerb 50W; Pronamide; Pronamide; Propyzamide; RH-315.

$$$$
360


 15 14  0  0  0  0  0  0  0  0999 V2000
   29.9067  -42.9015    0.0002 C   0  0  0  0  0  0  0  0  0  0  0  0
   31.2354  -42.2730   -0.0010 N   0  0  0  0  0  0  0  0  0  0  0  0
   31.3564  -40.9167   -0.0017 N   0  0  0  0  0  0  0  0  0  0  0  0
   32.4037  -43.0884    0.0011 C   0  0  0  0  0  0  0  0  0  0  0  0
   33.6756  -42.4900   -0.0009 N   0  0  0  0  0  0  0  0  0  0  0  0
   32.2749  -44.3533    0.0044 N   0  0  0  0  0  0  0  0  0  0  0  0
   30.3948  -40.2432   -0.0015 O   0  0  0  0  0  0  0  0  0  0  0  0
   34.7969  -43.2268   -0.0008 N   0  3  0  0  0  0  0  0  0  0  0  0
   34.7362  -44.5504   -0.0013 O   0  5  0  0  0  0  0  0  0  0  0  0
   35.8451  -42.6971   -0.0008 O   0  0  0  0  0  0  0  0  0  0  0  0
   30.0080  -43.8963    0.0006 H   0  0  0  0  0  0  0  0  0  0  0  0
   29.4029  -42.6186   -0.8160 H   0  0  0  0  0  0  0  0  0  0  0  0
   29.4040  -42.6178    0.8168 H   0  0  0  0  0  0  0  0  0  0  0  0
   33.7463  -41.4925   -0.0023 H   0  0  0  0  0  0  0  0  0  0  0  0
   33.0857  -44.9385    0.0059 H   0  0  0  0  0  0  0  0  0  0  0  0
  1  2  1  0  0  0  0
  2  3  1  0  0  0  0
  2  4  1  0  0  0  0
  4  5  1  0  0  0  0
  4  6  2  0  0  0  0
  3  7  2  0  0  0  0
  5  8  1  0  0  0  0
  8  9  1  0  0  0  0
  8 10  2  0  0  0  0
  1 11  1  0  0  0  0
  1 12  1  0  0  0  0
  1 13  1  0  0  0  0
  5 14  1  0  0  0  0
  6 15  1  0  0  0  0
M  END
>  <Substance ID> (360)
360

>  <Mouse_Female_Canc> (360)
3

>  <SAL> (360)
3

>  <Rat_Male_Canc> (360)
3

>  <TD50_Rat> (360)
0.803

>  <TD50_Mouse> (360)
ND

>  <Rat_Female_Canc> (360)
3

>  <Canc> (360)
3

>  <MolWeight> (360)
147.09

>  <Mouse_Male_Canc> (360)
3

>  <Mouse_Male_NTP> (360)
ND

>  <ChemName> (360)
N-methyl-N'-nitro-N-nitrosoguanidine

>  <Rat_Male_NTP> (360)
ND

>  <Reference> (360)
CPDB & NTP441

>  <Formula> (360)
C2H5N5O3

>  <SMILES> (360)
N=C(N(N=O)C)N[N+](=O)[O-]

>  <Rat_Female_NTP> (360)
ND

>  <CAS> (360)
70-25-7

>  <Mouse_Female_NTP> (360)
ND

>  <Synonyms> (360)
1-methyl-1-nitroso-N-methylguanidine; 1-methyl-3-nitro-1-nitrosoguanidine; 1-nitro-N-nitroso-N-methylguanidine; methylnitronitrosoguanidine; Methyl-N'-nitro-N-nitrosoguanidine; MNG; MNNG; N-methyl-N-nitroso-N'-nitroguanidine; N-Methyl-N-Nitroso-N'-Nitroguanidine, 97% - Carc.; N'-nitro-N-nitroso-N-methylguanidine; N-nitroso-N-methylnitroguanidine.

$$$$
361


  9  8  0  0  0  0  0  0  0  0999 V2000
   39.4517  -51.7062   -0.0006 C   0  0  0  0  0  0  0  0  0  0  0  0
   40.5684  -50.6458    0.0002 C   0  0  0  0  0  0  0  0  0  0  0  0
   37.7230  -50.8260    0.0003 Br  0  0  0  0  0  0  0  0  0  0  0  0
   41.8427  -51.2946    0.0003 O   0  0  0  0  0  0  0  0  0  0  0  0
   39.5346  -52.2767   -0.8177 H   0  0  0  0  0  0  0  0  0  0  0  0
   39.5348  -52.2781    0.8156 H   0  0  0  0  0  0  0  0  0  0  0  0
   40.4857  -50.0743   -0.8162 H   0  0  0  0  0  0  0  0  0  0  0  0
   40.4852  -50.0750    0.8171 H   0  0  0  0  0  0  0  0  0  0  0  0
   42.5679  -50.6060    0.0008 H   0  0  0  0  0  0  0  0  0  0  0  0
  1  2  1  0  0  0  0
  1  3  1  0  0  0  0
  2  4  1  0  0  0  0
  1  5  1  0  0  0  0
  1  6  1  0  0  0  0
  2  7  1  0  0  0  0
  2  8  1  0  0  0  0
  4  9  1  0  0  0  0
M  END
>  <Substance ID> (361)
361

>  <Mouse_Female_Canc> (361)
3

>  <SAL> (361)
3

>  <Rat_Male_Canc> (361)
ND

>  <TD50_Rat> (361)
ND

>  <TD50_Mouse> (361)
76.1

>  <Rat_Female_Canc> (361)
ND

>  <Canc> (361)
3

>  <MolWeight> (361)
124.96

>  <Mouse_Male_Canc> (361)
3

>  <Mouse_Male_NTP> (361)
ND

>  <ChemName> (361)
Bromoethanol

>  <Rat_Male_NTP> (361)
ND

>  <Reference> (361)
CPDB

>  <Formula> (361)
C2H5BrO

>  <SMILES> (361)
OCCBr

>  <Rat_Female_NTP> (361)
ND

>  <CAS> (361)
540-51-2

>  <Mouse_Female_NTP> (361)
ND

>  <Synonyms> (361)
2-Bromo-1-ethanol; 2-Bromoethanol; beta-bromoethyl alcohol; Ethylene Bromohydrin; glycol bromohydrin.

$$$$
362


 20 20  0  0  0  0  0  0  0  0999 V2000
   33.2146  -58.7122   -0.0042 C   0  0  0  0  0  0  0  0  0  0  0  0
   34.1198  -59.6858   -0.0050 C   0  0  0  0  0  0  0  0  0  0  0  0
   35.9430  -58.0870   -0.0024 C   0  0  0  0  0  0  0  0  0  0  0  0
   34.9468  -57.0146   -0.0016 C   0  0  0  0  0  0  0  0  0  0  0  0
   35.5354  -59.3552   -0.0034 C   0  0  0  0  0  0  0  0  0  0  0  0
   33.6481  -57.3128   -0.0025 C   0  0  0  0  0  0  0  0  0  0  0  0
   37.3894  -57.7371    0.0021 C   0  0  0  0  0  0  0  0  0  0  0  0
   38.4364  -58.7533    0.0034 N   0  0  0  0  0  0  0  0  0  0  0  0
   38.1404  -60.0930    0.0014 N   0  0  0  0  0  0  0  0  0  0  0  0
   39.8426  -58.3342    0.0056 C   0  0  0  0  0  0  0  0  0  0  0  0
   37.7147  -56.5427    0.0043 O   0  0  0  0  0  0  0  0  0  0  0  0
   38.9937  -60.8991    0.0021 O   0  0  0  0  0  0  0  0  0  0  0  0
   32.2397  -58.9345   -0.0048 H   0  0  0  0  0  0  0  0  0  0  0  0
   33.8278  -60.6423   -0.0066 H   0  0  0  0  0  0  0  0  0  0  0  0
   35.2406  -56.0588   -0.0004 H   0  0  0  0  0  0  0  0  0  0  0  0
   36.2131  -60.0906   -0.0032 H   0  0  0  0  0  0  0  0  0  0  0  0
   32.9679  -56.5798   -0.0019 H   0  0  0  0  0  0  0  0  0  0  0  0
   40.4318  -59.1422    0.0063 H   0  0  0  0  0  0  0  0  0  0  0  0
   40.0267  -57.7875    0.8224 H   0  0  0  0  0  0  0  0  0  0  0  0
   40.0291  -57.7870   -0.8104 H   0  0  0  0  0  0  0  0  0  0  0  0
  1  2  2  0  0  0  0
  3  4  1  0  0  0  0
  1  6  1  0  0  0  0
  2  5  1  0  0  0  0
  5  3  2  0  0  0  0
  4  6  2  0  0  0  0
  3  7  1  0  0  0  0
  7  8  1  0  0  0  0
  8  9  1  0  0  0  0
  8 10  1  0  0  0  0
  7 11  2  0  0  0  0
  9 12  2  0  0  0  0
  1 13  1  0  0  0  0
  2 14  1  0  0  0  0
  4 15  1  0  0  0  0
  5 16  1  0  0  0  0
  6 17  1  0  0  0  0
 10 18  1  0  0  0  0
 10 19  1  0  0  0  0
 10 20  1  0  0  0  0
M  END
>  <Substance ID> (362)
362

>  <Mouse_Female_Canc> (362)
ND

>  <SAL> (362)
3

>  <Rat_Male_Canc> (362)
3

>  <TD50_Rat> (362)
3.23

>  <TD50_Mouse> (362)
ND

>  <Rat_Female_Canc> (362)
3

>  <Canc> (362)
3

>  <MolWeight> (362)
164.16

>  <Mouse_Male_Canc> (362)
ND

>  <Mouse_Male_NTP> (362)
ND

>  <ChemName> (362)
N-methyl-N-nitrosobenzamide

>  <Rat_Male_NTP> (362)
ND

>  <Reference> (362)
CPDB

>  <Formula> (362)
C8H8N2O2

>  <SMILES> (362)
O=C(N(N=O)C)c1ccccc1

>  <Rat_Female_NTP> (362)
ND

>  <CAS> (362)
63412-06-6

>  <Mouse_Female_NTP> (362)
ND

>  <Synonyms> (362)
-

$$$$
363


 23 25  0  0  0  0  0  0  0  0999 V2000
   36.0577  -80.0362   -0.0012 O   0  0  0  0  0  0  0  0  0  0  0  0
   36.8615  -77.8873    0.0028 C   0  0  0  0  0  0  0  0  0  0  0  0
   37.2016  -79.1569    0.0017 C   0  0  0  0  0  0  0  0  0  0  0  0
   39.5212  -78.5907    0.0014 C   0  0  0  0  0  0  0  0  0  0  0  0
   39.1187  -77.1493    0.0010 C   0  0  0  0  0  0  0  0  0  0  0  0
   38.5949  -79.5560    0.0020 C   0  0  0  0  0  0  0  0  0  0  0  0
   37.8254  -76.8110    0.0025 C   0  0  0  0  0  0  0  0  0  0  0  0
   35.0082  -79.0482   -0.0005 C   0  0  0  0  0  0  0  0  0  0  0  0
   35.4726  -77.8184    0.0020 C   0  0  0  0  0  0  0  0  0  0  0  0
   33.2991  -76.8611   -0.0007 C   0  0  0  0  0  0  0  0  0  0  0  0
   32.7553  -78.2557   -0.0042 C   0  0  0  0  0  0  0  0  0  0  0  0
   34.6195  -76.6521    0.0022 C   0  0  0  0  0  0  0  0  0  0  0  0
   33.5821  -79.3076   -0.0036 C   0  0  0  0  0  0  0  0  0  0  0  0
   40.0980  -76.1551   -0.0016 N   0  0  0  0  0  0  0  0  0  0  0  0
   40.4910  -78.8345    0.0013 H   0  0  0  0  0  0  0  0  0  0  0  0
   38.8554  -80.5215    0.0027 H   0  0  0  0  0  0  0  0  0  0  0  0
   37.5372  -75.8534    0.0035 H   0  0  0  0  0  0  0  0  0  0  0  0
   32.6719  -76.0823   -0.0007 H   0  0  0  0  0  0  0  0  0  0  0  0
   31.7662  -78.4023   -0.0070 H   0  0  0  0  0  0  0  0  0  0  0  0
   35.0007  -75.7276    0.0046 H   0  0  0  0  0  0  0  0  0  0  0  0
   33.2276  -80.2427   -0.0051 H   0  0  0  0  0  0  0  0  0  0  0  0
   39.8319  -75.1912   -0.0020 H   0  0  0  0  0  0  0  0  0  0  0  0
   41.0658  -76.4067   -0.0032 H   0  0  0  0  0  0  0  0  0  0  0  0
  8  1  1  0  0  0  0
  1  3  1  0  0  0  0
  9  2  1  0  0  0  0
  2  3  2  0  0  0  0
  4  5  1  0  0  0  0
  2  7  1  0  0  0  0
  3  6  1  0  0  0  0
  6  4  2  0  0  0  0
  5  7  2  0  0  0  0
  8  9  2  0  0  0  0
 10 11  1  0  0  0  0
  8 13  1  0  0  0  0
  9 12  1  0  0  0  0
 12 10  2  0  0  0  0
 11 13  2  0  0  0  0
  5 14  1  0  0  0  0
  4 15  1  0  0  0  0
  6 16  1  0  0  0  0
  7 17  1  0  0  0  0
 10 18  1  0  0  0  0
 11 19  1  0  0  0  0
 12 20  1  0  0  0  0
 13 21  1  0  0  0  0
 14 22  1  0  0  0  0
 14 23  1  0  0  0  0
M  END
>  <Substance ID> (363)
363

>  <Mouse_Female_Canc> (363)
3

>  <SAL> (363)
ND

>  <Rat_Male_Canc> (363)
ND

>  <TD50_Rat> (363)
ND

>  <TD50_Mouse> (363)
4.24

>  <Rat_Female_Canc> (363)
ND

>  <Canc> (363)
3

>  <MolWeight> (363)
183.21

>  <Mouse_Male_Canc> (363)
3

>  <Mouse_Male_NTP> (363)
ND

>  <ChemName> (363)
2-Aminodiphenylene oxide

>  <Rat_Male_NTP> (363)
ND

>  <Reference> (363)
CPDB

>  <Formula> (363)
C12H9NO

>  <SMILES> (363)
o2c1ccccc1c3c2ccc(N)c3

>  <Rat_Female_NTP> (363)
ND

>  <CAS> (363)
3693-22-9

>  <Mouse_Female_NTP> (363)
ND

>  <Synonyms> (363)
-

$$$$
364


 21 21  0  0  0  0  0  0  0  0999 V2000
   41.9681  -98.4821    0.1967 C   0  0  0  0  0  0  0  0  0  0  0  0
   43.3452  -98.1581    0.8141 C   0  0  0  0  0  0  0  0  0  0  0  0
   44.0875  -97.2581   -0.0657 N   0  0  0  0  0  0  0  0  0  0  0  0
   43.8941  -95.8092   -0.0053 C   0  0  0  0  0  0  0  0  0  0  0  0
   42.4871  -95.3717    0.4345 C   0  0  0  0  0  0  0  0  0  0  0  0
   41.3515  -96.0257   -0.3648 C   0  0  0  0  0  0  0  0  0  0  0  0
   40.9959  -97.3620    0.1672 N   0  0  0  0  0  0  0  0  0  0  0  0
   45.3375  -97.6669   -0.4241 N   0  0  0  0  0  0  0  0  0  0  0  0
   39.7707  -97.7737   -0.2699 N   0  0  0  0  0  0  0  0  0  0  0  0
   39.4843  -98.9122   -0.2332 O   0  0  0  0  0  0  0  0  0  0  0  0
   45.6630  -98.7841   -0.2474 O   0  0  0  0  0  0  0  0  0  0  0  0
   42.1171  -98.7842   -0.7449 H   0  0  0  0  0  0  0  0  0  0  0  0
   41.5620  -99.2272    0.7259 H   0  0  0  0  0  0  0  0  0  0  0  0
   43.2145  -97.7189    1.7029 H   0  0  0  0  0  0  0  0  0  0  0  0
   43.8623  -99.0056    0.9333 H   0  0  0  0  0  0  0  0  0  0  0  0
   44.5552  -95.4327    0.6437 H   0  0  0  0  0  0  0  0  0  0  0  0
   44.0680  -95.4327   -0.9153 H   0  0  0  0  0  0  0  0  0  0  0  0
   42.3707  -95.6103    1.3986 H   0  0  0  0  0  0  0  0  0  0  0  0
   42.4177  -94.3801    0.3252 H   0  0  0  0  0  0  0  0  0  0  0  0
   40.5451  -95.4360   -0.3213 H   0  0  0  0  0  0  0  0  0  0  0  0
   41.6420  -96.1241   -1.3166 H   0  0  0  0  0  0  0  0  0  0  0  0
  1  2  1  0  0  0  0
  2  3  1  0  0  0  0
  3  4  1  0  0  0  0
  4  5  1  0  0  0  0
  5  6  1  0  0  0  0
  7  1  1  0  0  0  0
  6  7  1  0  0  0  0
  3  8  1  0  0  0  0
  7  9  1  0  0  0  0
  9 10  2  0  0  0  0
  8 11  2  0  0  0  0
  1 12  1  0  0  0  0
  1 13  1  0  0  0  0
  2 14  1  0  0  0  0
  2 15  1  0  0  0  0
  4 16  1  0  0  0  0
  4 17  1  0  0  0  0
  5 18  1  0  0  0  0
  5 19  1  0  0  0  0
  6 20  1  0  0  0  0
  6 21  1  0  0  0  0
M  END
>  <Substance ID> (364)
364

>  <Mouse_Female_Canc> (364)
ND

>  <SAL> (364)
3

>  <Rat_Male_Canc> (364)
ND

>  <TD50_Rat> (364)
0.0615

>  <TD50_Mouse> (364)
ND

>  <Rat_Female_Canc> (364)
3

>  <Canc> (364)
3

>  <MolWeight> (364)
158.16

>  <Mouse_Male_Canc> (364)
ND

>  <Mouse_Male_NTP> (364)
ND

>  <ChemName> (364)
Dinitrosohomopiperazine

>  <Rat_Male_NTP> (364)
ND

>  <Reference> (364)
CPDB

>  <Formula> (364)
C5H10N4O2

>  <SMILES> (364)
O=NN(CCN1N=O)CCC1

>  <Rat_Female_NTP> (364)
ND

>  <CAS> (364)
55557-00-1

>  <Mouse_Female_NTP> (364)
ND

>  <Synonyms> (364)
hexahydro-1,4-dinitroso-1,4-Diazepine.

$$$$
365


 42 45  0  0  0  0  0  0  0  0999 V2000
   19.8891  -14.6604   -0.1328 C   0  0  0  0  0  0  0  0  0  0  0  0
   18.6456  -13.9831    0.2774 C   0  0  0  0  0  0  0  0  0  0  0  0
   18.6347  -12.6568    0.4891 C   0  0  0  0  0  0  0  0  0  0  0  0
   19.8670  -11.8666    0.3168 C   0  0  0  0  0  0  0  0  0  0  0  0
   21.0863  -13.8533   -0.3614 C   0  0  0  0  0  0  0  0  0  0  0  0
   21.0769  -12.5457   -0.1376 C   0  0  0  0  0  0  0  0  0  0  0  0
   22.3704  -11.9335   -0.5514 C   0  0  2  0  0  0  0  0  0  0  0  0
   22.3724  -14.2947   -0.7865 N   0  0  0  0  0  0  0  0  0  0  0  0
   23.3264  -13.2107   -0.6849 C   0  0  1  0  0  0  0  0  0  0  0  0
   22.8724  -15.6358   -0.6127 C   0  0  0  0  0  0  0  0  0  0  0  0
   24.1810  -15.2393    0.1313 C   0  0  1  0  0  0  0  0  0  0  0  0
   24.0815  -13.7836    0.5193 C   0  0  1  0  0  0  0  0  0  0  0  0
   23.4757  -14.6474    1.4075 N   0  0  0  0  0  0  0  0  0  0  0  0
   17.4471  -12.0264    0.8640 N   0  0  0  0  0  0  0  0  0  0  0  0
   17.3821  -14.7735    0.4486 C   0  0  0  0  0  0  0  0  0  0  0  0
   19.8484  -10.6415    0.5016 O   0  0  0  0  0  0  0  0  0  0  0  0
   19.8964  -15.8874   -0.3072 O   0  0  0  0  0  0  0  0  0  0  0  0
   24.2814  -13.1771   -1.8173 O   0  0  0  0  0  0  0  0  0  0  0  0
   25.3661  -12.2452   -1.7548 C   0  0  0  0  0  0  0  0  0  0  0  0
   22.8574  -10.6346    0.1871 C   0  0  0  0  0  0  0  0  0  0  0  0
   24.0567  -10.1185   -0.3602 O   0  0  0  0  0  0  0  0  0  0  0  0
   24.3987   -8.9176    0.2469 C   0  0  0  0  0  0  0  0  0  0  0  0
   25.4434   -8.3439   -0.0803 O   0  0  0  0  0  0  0  0  0  0  0  0
   23.5666   -8.3541    1.2162 N   0  0  0  0  0  0  0  0  0  0  0  0
   24.9912  -13.2924    0.9037 H   0  0  0  0  0  0  0  0  0  0  0  0
   24.7170  -16.0447    0.6540 H   0  0  0  0  0  0  0  0  0  0  0  0
   22.3199  -11.4355   -1.4171 H   0  0  0  0  0  0  0  0  0  0  0  0
   23.0491  -16.0960   -1.4828 H   0  0  0  0  0  0  0  0  0  0  0  0
   22.2679  -16.2020   -0.0524 H   0  0  0  0  0  0  0  0  0  0  0  0
   23.8781  -14.7943    2.3111 H   0  0  0  0  0  0  0  0  0  0  0  0
   17.4336  -11.0392    1.0228 H   0  0  0  0  0  0  0  0  0  0  0  0
   16.6098  -12.5620    0.9738 H   0  0  0  0  0  0  0  0  0  0  0  0
   16.6413  -14.1624    0.7275 H   0  0  0  0  0  0  0  0  0  0  0  0
   17.5184  -15.4731    1.1501 H   0  0  0  0  0  0  0  0  0  0  0  0
   17.1431  -15.2126   -0.4175 H   0  0  0  0  0  0  0  0  0  0  0  0
   25.9271  -12.3303   -2.5781 H   0  0  0  0  0  0  0  0  0  0  0  0
   25.9260  -12.4383   -0.9490 H   0  0  0  0  0  0  0  0  0  0  0  0
   25.0039  -11.3151   -1.6934 H   0  0  0  0  0  0  0  0  0  0  0  0
   22.1447   -9.9371    0.1129 H   0  0  0  0  0  0  0  0  0  0  0  0
   23.0123  -10.8524    1.1507 H   0  0  0  0  0  0  0  0  0  0  0  0
   23.8186   -7.4889    1.6497 H   0  0  0  0  0  0  0  0  0  0  0  0
   22.7187   -8.8157    1.4769 H   0  0  0  0  0  0  0  0  0  0  0  0
  6  4  1  0  0  0  0
  5  1  1  0  0  0  0
  1  2  1  0  0  0  0
  2  3  2  0  0  0  0
  3  4  1  0  0  0  0
  5  6  2  0  0  0  0
  6  7  1  0  0  0  0
  7  9  1  0  0  0  0
  8  5  1  0  0  0  0
  8  9  1  0  0  0  0
  9 12  1  0  0  0  0
 11 10  1  0  0  0  0
 10  8  1  0  0  0  0
 12 11  1  0  0  0  0
 13 12  1  0  0  0  0
 11 13  1  0  0  0  0
  3 14  1  0  0  0  0
  2 15  1  0  0  0  0
  4 16  2  0  0  0  0
  1 17  2  0  0  0  0
  9 18  1  6  0  0  0
 18 19  1  0  0  0  0
  7 20  1  1  0  0  0
 20 21  1  0  0  0  0
 21 22  1  0  0  0  0
 22 23  2  0  0  0  0
 22 24  1  0  0  0  0
 12 25  1  6  0  0  0
 11 26  1  6  0  0  0
  7 27  1  0  0  0  0
 10 28  1  0  0  0  0
 10 29  1  0  0  0  0
 13 30  1  0  0  0  0
 14 31  1  0  0  0  0
 14 32  1  0  0  0  0
 15 33  1  0  0  0  0
 15 34  1  0  0  0  0
 15 35  1  0  0  0  0
 19 36  1  0  0  0  0
 19 37  1  0  0  0  0
 19 38  1  0  0  0  0
 20 39  1  0  0  0  0
 20 40  1  0  0  0  0
 24 41  1  0  0  0  0
 24 42  1  0  0  0  0
M  END
>  <Substance ID> (365)
365

>  <Mouse_Female_Canc> (365)
ND

>  <SAL> (365)
3

>  <Rat_Male_Canc> (365)
3

>  <TD50_Rat> (365)
0.00102

>  <TD50_Mouse> (365)
ND

>  <Rat_Female_Canc> (365)
3

>  <Canc> (365)
3

>  <MolWeight> (365)
334.33

>  <Mouse_Male_Canc> (365)
ND

>  <Mouse_Male_NTP> (365)
ND

>  <ChemName> (365)
Mitomycin C

>  <Rat_Male_NTP> (365)
ND

>  <Reference> (365)
CPDB

>  <Formula> (365)
C15H18N4O5

>  <SMILES> (365)
O=C\1C/2=C(\C(=O)/C(N)=C/1C)[C@H]([C@]3(OC)N\2C[C@H]4N[C@@H]34)COC(=O)N

>  <Rat_Female_NTP> (365)
ND

>  <CAS> (365)
50-07-7

>  <Mouse_Female_NTP> (365)
ND

>  <Synonyms> (365)
[1aR-(1aalpha,8beta,8aalpha,8balpha)]-6-amino-8-[[(aminocarbonyl)oxy]methyl]-1,1a,2,8,8a,8b-hexahydro-8a-methoxy-5-methylazirino[2',3':3,4]pyrrolo[1,2-alpha]indole-4,7-dione; (1ar)-6-amino-8-(((aminocarbonyl)oxy)methyl)-1,1a,2,8,8a,8b-hexahydro-8a-methoxy-5-methylazirino[2',3':3,4]pyrrolo[1,2-a]indole-4,7-dione; 6-amino-1,1a,2,8,8a,8b-hexahydro-8-(hydroxymethyl)-8a-methoxy-5-methylazirino[2',3':3,4]pyrrolo[1,2-a]indole-4,7-dione, carbamate (ester); 6-amino-8-[[(aminocarbonyl)oxy]methyl]-1,1a,2,8,8a,8b-hexahydro-8a-methoxy-5-methyl, [1aS-(1aalpha,8beta,8aalpha,8balpha)]-azirino[2',3':3,4]pyrrolo[1,2a]indole-4,7-dione; 7-Amino-9alpha-methoxymitosane; Ametycin; Azirino[2',3':3,4]pyrrolo[1,2-a]indole-4,7-dione, 6-amino-8-[[(aminocarbonyl)oxy]methyl]-1,1a,2,8,8a,8b-hexahydro-8a-methoxy-5-methyl-, [1aS-(1aalpha,8beta,8aalpha,8balpha)]-; Mit-C; Mito-C; Mitocin-C; Mitomycin; Mitomycinum; MMC; Mutamycin; Mytomycin.

$$$$
366


 31 32  0  0  0  0  0  0  0  0999 V2000
   12.3431  -17.5858   -0.0040 C   0  0  0  0  0  0  0  0  0  0  0  0
   13.0442  -16.4593    0.0007 C   0  0  0  0  0  0  0  0  0  0  0  0
   14.4102  -16.8135   -0.0046 C   0  0  0  0  0  0  0  0  0  0  0  0
   14.4605  -18.1362   -0.0101 C   0  0  0  0  0  0  0  0  0  0  0  0
   13.1636  -18.7544   -0.0108 O   0  0  0  0  0  0  0  0  0  0  0  0
    6.4534  -18.4834    0.0234 N   0  0  0  0  0  0  0  0  0  0  0  0
    6.6854  -17.0613    0.3614 C   0  0  0  0  0  0  0  0  0  0  0  0
    8.2088  -16.8670    0.0020 C   0  0  0  0  0  0  0  0  0  0  0  0
    8.7255  -18.2583    0.0198 N   0  0  0  0  0  0  0  0  0  0  0  0
    7.6714  -19.1798   -0.0361 C   0  0  0  0  0  0  0  0  0  0  0  0
    5.1410  -19.1393    0.1418 C   0  0  0  0  0  0  0  0  0  0  0  0
   10.0821  -18.5538   -0.0122 N   0  0  0  0  0  0  0  0  0  0  0  0
   10.8624  -17.5487    0.0020 C   0  0  0  0  0  0  0  0  0  0  0  0
    7.7904  -20.4064   -0.1148 O   0  0  0  0  0  0  0  0  0  0  0  0
    4.0313  -18.1306   -0.2282 C   0  0  0  0  0  0  0  0  0  0  0  0
    2.7494  -18.7408   -0.0763 O   0  0  0  0  0  0  0  0  0  0  0  0
   15.6747  -18.8264   -0.0153 N   0  3  0  0  0  0  0  0  0  0  0  0
   16.8126  -18.1442   -0.0178 O   0  5  0  0  0  0  0  0  0  0  0  0
   15.6902  -19.9994   -0.0180 O   0  0  0  0  0  0  0  0  0  0  0  0
   12.6732  -15.5307    0.0068 H   0  0  0  0  0  0  0  0  0  0  0  0
   15.1893  -16.1866   -0.0041 H   0  0  0  0  0  0  0  0  0  0  0  0
    6.1053  -16.4604   -0.1884 H   0  0  0  0  0  0  0  0  0  0  0  0
    6.5188  -16.8893    1.3323 H   0  0  0  0  0  0  0  0  0  0  0  0
    8.6714  -16.3015    0.6847 H   0  0  0  0  0  0  0  0  0  0  0  0
    8.3164  -16.4537   -0.9022 H   0  0  0  0  0  0  0  0  0  0  0  0
    5.1015  -19.9220   -0.4793 H   0  0  0  0  0  0  0  0  0  0  0  0
    5.0077  -19.4523    1.0822 H   0  0  0  0  0  0  0  0  0  0  0  0
   10.4339  -16.6453    0.0188 H   0  0  0  0  0  0  0  0  0  0  0  0
    4.0929  -17.3345    0.3738 H   0  0  0  0  0  0  0  0  0  0  0  0
    4.1500  -17.8409   -1.1779 H   0  0  0  0  0  0  0  0  0  0  0  0
    2.0359  -18.0829   -0.3172 H   0  0  0  0  0  0  0  0  0  0  0  0
  1  2  2  0  0  0  0
  3  4  2  0  0  0  0
  4  5  1  0  0  0  0
  5  1  1  0  0  0  0
  2  3  1  0  0  0  0
  6  7  1  0  0  0  0
  8  9  1  0  0  0  0
  9 10  1  0  0  0  0
 10  6  1  0  0  0  0
  7  8  1  0  0  0  0
  6 11  1  0  0  0  0
  9 12  1  0  0  0  0
 12 13  2  0  0  0  0
 10 14  2  0  0  0  0
 13  1  1  0  0  0  0
 11 15  1  0  0  0  0
 15 16  1  0  0  0  0
 17 18  1  0  0  0  0
 17 19  2  0  0  0  0
  4 17  1  0  0  0  0
  2 20  1  0  0  0  0
  3 21  1  0  0  0  0
  7 22  1  0  0  0  0
  7 23  1  0  0  0  0
  8 24  1  0  0  0  0
  8 25  1  0  0  0  0
 11 26  1  0  0  0  0
 11 27  1  0  0  0  0
 13 28  1  0  0  0  0
 15 29  1  0  0  0  0
 15 30  1  0  0  0  0
 16 31  1  0  0  0  0
M  END
>  <Substance ID> (366)
366

>  <Mouse_Female_Canc> (366)
ND

>  <SAL> (366)
3

>  <Rat_Male_Canc> (366)
ND

>  <TD50_Rat> (366)
16.7

>  <TD50_Mouse> (366)
ND

>  <Rat_Female_Canc> (366)
3

>  <Canc> (366)
3

>  <MolWeight> (366)
268.23

>  <Mouse_Male_Canc> (366)
ND

>  <Mouse_Male_NTP> (366)
ND

>  <ChemName> (366)
Nifurdazil

>  <Rat_Male_NTP> (366)
ND

>  <Reference> (366)
CPDB

>  <Formula> (366)
C10H12N4O5

>  <SMILES> (366)
O=[N+]([O-])c2oc(/C=N/N1C(=O)N(CCO)CC1)cc2

>  <Rat_Female_NTP> (366)
ND

>  <CAS> (366)
5036-03-3

>  <Mouse_Female_NTP> (366)
ND

>  <Synonyms> (366)
1-(2-Hydroxyethyl)-3-[(5-nitrofurfurylidene)amino]-2-imidazolidinone.

$$$$
367


 29 29  0  0  0  0  0  0  0  0999 V2000
    2.9084  -30.9898    0.1574 C   0  0  0  0  0  0  0  0  0  0  0  0
    2.8949  -32.3191    0.1950 C   0  0  0  0  0  0  0  0  0  0  0  0
    4.1434  -33.0842    0.1066 C   0  0  0  0  0  0  0  0  0  0  0  0
    4.1717  -30.2775    0.0284 C   0  0  0  0  0  0  0  0  0  0  0  0
    4.1721  -28.8718    0.0084 O   0  0  0  0  0  0  0  0  0  0  0  0
    4.0614  -34.4745    0.1768 O   0  0  0  0  0  0  0  0  0  0  0  0
    5.3158  -32.4334   -0.0279 C   0  0  0  0  0  0  0  0  0  0  0  0
    5.3099  -30.9640   -0.0643 C   0  0  0  0  0  0  0  0  0  0  0  0
    6.6827  -33.1395   -0.1229 C   0  0  0  0  0  0  0  0  0  0  0  0
    7.7347  -32.1629   -0.6857 C   0  0  0  0  0  0  0  0  0  0  0  0
    6.6651  -34.4353   -0.9698 C   0  0  0  0  0  0  0  0  0  0  0  0
    7.1093  -33.5241    1.3060 C   0  0  0  0  0  0  0  0  0  0  0  0
    5.5047  -28.3449   -0.1101 C   0  0  0  0  0  0  0  0  0  0  0  0
    2.0507  -30.4794    0.2177 H   0  0  0  0  0  0  0  0  0  0  0  0
    2.0240  -32.8024    0.2845 H   0  0  0  0  0  0  0  0  0  0  0  0
    4.9782  -34.8670    0.1043 H   0  0  0  0  0  0  0  0  0  0  0  0
    6.1747  -30.4712   -0.1604 H   0  0  0  0  0  0  0  0  0  0  0  0
    8.6199  -32.6242   -0.7459 H   0  0  0  0  0  0  0  0  0  0  0  0
    7.8127  -31.3709   -0.0802 H   0  0  0  0  0  0  0  0  0  0  0  0
    7.4549  -31.8595   -1.5965 H   0  0  0  0  0  0  0  0  0  0  0  0
    7.5812  -34.8358   -0.9862 H   0  0  0  0  0  0  0  0  0  0  0  0
    6.3793  -34.2199   -1.9036 H   0  0  0  0  0  0  0  0  0  0  0  0
    6.0235  -35.0884   -0.5675 H   0  0  0  0  0  0  0  0  0  0  0  0
    7.9958  -33.9857    1.2769 H   0  0  0  0  0  0  0  0  0  0  0  0
    6.4274  -34.1378    1.7041 H   0  0  0  0  0  0  0  0  0  0  0  0
    7.1820  -32.6989    1.8662 H   0  0  0  0  0  0  0  0  0  0  0  0
    5.4687  -27.3457   -0.1214 H   0  0  0  0  0  0  0  0  0  0  0  0
    5.9189  -28.6727   -0.9593 H   0  0  0  0  0  0  0  0  0  0  0  0
    6.0545  -28.6495    0.6677 H   0  0  0  0  0  0  0  0  0  0  0  0
  1  2  2  0  0  0  0
  1  4  1  0  0  0  0
  2  3  1  0  0  0  0
  8  4  2  0  0  0  0
  4  5  1  0  0  0  0
  3  6  1  0  0  0  0
  3  7  2  0  0  0  0
  7  8  1  0  0  0  0
  7  9  1  0  0  0  0
  9 10  1  0  0  0  0
  9 11  1  0  0  0  0
  9 12  1  0  0  0  0
  5 13  1  0  0  0  0
  1 14  1  0  0  0  0
  2 15  1  0  0  0  0
  6 16  1  0  0  0  0
  8 17  1  0  0  0  0
 10 18  1  0  0  0  0
 10 19  1  0  0  0  0
 10 20  1  0  0  0  0
 11 21  1  0  0  0  0
 11 22  1  0  0  0  0
 11 23  1  0  0  0  0
 12 24  1  0  0  0  0
 12 25  1  0  0  0  0
 12 26  1  0  0  0  0
 13 27  1  0  0  0  0
 13 28  1  0  0  0  0
 13 29  1  0  0  0  0
M  END
>  <Substance ID> (367)
367

>  <Mouse_Female_Canc> (367)
1

>  <SAL> (367)
1

>  <Rat_Male_Canc> (367)
3

>  <TD50_Rat> (367)
606

>  <TD50_Mouse> (367)
5530

>  <Rat_Female_Canc> (367)
3

>  <Canc> (367)
3

>  <MolWeight> (367)
180.25

>  <Mouse_Male_Canc> (367)
3

>  <Mouse_Male_NTP> (367)
ND

>  <ChemName> (367)
Butylated hydroxyanisole

>  <Rat_Male_NTP> (367)
ND

>  <Reference> (367)
CPDB

>  <Formula> (367)
C11H16O2

>  <SMILES> (367)
OC1=CC=C(C=C1C(C)(C)C)OC

>  <Rat_Female_NTP> (367)
ND

>  <CAS> (367)
25013-16-5

>  <Mouse_Female_NTP> (367)
ND

>  <Synonyms> (367)
2(3)-tert-Butyl-4-hydroxyanisole; antioxyne b; BHA; BOA; Butyl Hydroxyanisole; tert-butyl-4-hydroxyanisole; tert-butyl-4-methoxyphenol; tert-butylhydroxyanisole; Vertac.

$$$$
368


 25 27  0  0  0  0  0  0  0  0999 V2000
    7.8479  -43.2942    0.0057 N   0  0  0  0  0  0  0  0  0  0  0  0
    7.2288  -42.0212   -0.0085 C   0  0  0  0  0  0  0  0  0  0  0  0
    5.9459  -42.1306   -0.0026 N   0  0  0  0  0  0  0  0  0  0  0  0
    5.6696  -43.5070    0.0032 C   0  0  0  0  0  0  0  0  0  0  0  0
    4.4959  -44.1131    0.0066 C   0  0  0  0  0  0  0  0  0  0  0  0
    6.8579  -44.2132    0.0010 C   0  0  0  0  0  0  0  0  0  0  0  0
    6.9188  -45.5389   -0.0042 C   0  0  0  0  0  0  0  0  0  0  0  0
    5.6211  -46.2621   -0.0095 C   0  0  0  0  0  0  0  0  0  0  0  0
    4.4713  -45.5684   -0.0030 C   0  0  0  0  0  0  0  0  0  0  0  0
    3.2368  -46.2232   -0.0110 N   0  0  0  0  0  0  0  0  0  0  0  0
    2.1433  -45.5611   -0.0055 C   0  0  0  0  0  0  0  0  0  0  0  0
    2.1201  -44.0773    0.0106 C   0  0  0  0  0  0  0  0  0  0  0  0
    3.2554  -43.3835    0.0150 C   0  0  0  0  0  0  0  0  0  0  0  0
    9.2573  -43.5543    0.0311 C   0  0  0  0  0  0  0  0  0  0  0  0
    7.9153  -40.8098   -0.0293 N   0  0  0  0  0  0  0  0  0  0  0  0
    7.7924  -46.0256   -0.0045 H   0  0  0  0  0  0  0  0  0  0  0  0
    5.6039  -47.2619   -0.0179 H   0  0  0  0  0  0  0  0  0  0  0  0
    1.2760  -46.0589   -0.0123 H   0  0  0  0  0  0  0  0  0  0  0  0
    1.2441  -43.5951    0.0182 H   0  0  0  0  0  0  0  0  0  0  0  0
    3.2469  -42.3836    0.0238 H   0  0  0  0  0  0  0  0  0  0  0  0
    9.7567  -42.6880    0.0287 H   0  0  0  0  0  0  0  0  0  0  0  0
    9.5128  -44.0881   -0.7750 H   0  0  0  0  0  0  0  0  0  0  0  0
    9.4869  -44.0686    0.8575 H   0  0  0  0  0  0  0  0  0  0  0  0
    7.4085  -39.9479   -0.0385 H   0  0  0  0  0  0  0  0  0  0  0  0
    8.9153  -40.8019   -0.0351 H   0  0  0  0  0  0  0  0  0  0  0  0
  6  1  1  0  0  0  0
  1  2  1  0  0  0  0
  2  3  2  0  0  0  0
  3  4  1  0  0  0  0
 13  5  1  0  0  0  0
  5  9  1  0  0  0  0
  5  4  2  0  0  0  0
  4  6  1  0  0  0  0
  6  7  2  0  0  0  0
  7  8  1  0  0  0  0
  8  9  2  0  0  0  0
  9 10  1  0  0  0  0
 10 11  2  0  0  0  0
 11 12  1  0  0  0  0
 12 13  2  0  0  0  0
  1 14  1  0  0  0  0
  2 15  1  0  0  0  0
  7 16  1  0  0  0  0
  8 17  1  0  0  0  0
 11 18  1  0  0  0  0
 12 19  1  0  0  0  0
 13 20  1  0  0  0  0
 14 21  1  0  0  0  0
 14 22  1  0  0  0  0
 14 23  1  0  0  0  0
 15 24  1  0  0  0  0
 15 25  1  0  0  0  0
M  END
>  <Substance ID> (368)
368

>  <Mouse_Female_Canc> (368)
3

>  <SAL> (368)
3

>  <Rat_Male_Canc> (368)
3

>  <TD50_Rat> (368)
0.812

>  <TD50_Mouse> (368)
19.6

>  <Rat_Female_Canc> (368)
3

>  <Canc> (368)
3

>  <MolWeight> (368)
198.23

>  <Mouse_Male_Canc> (368)
3

>  <Mouse_Male_NTP> (368)
ND

>  <ChemName> (368)
2-Amino-3-methylimidazo[4,5-f]quinoline

>  <Rat_Male_NTP> (368)
ND

>  <Reference> (368)
CPDB

>  <Formula> (368)
C11H10N4

>  <SMILES> (368)
CN1C2=C(C3=C(C=C2)N=CC=C3)N=C1N

>  <Rat_Female_NTP> (368)
ND

>  <CAS> (368)
76180-96-6

>  <Mouse_Female_NTP> (368)
ND

>  <Synonyms> (368)
2-amino-3-methyl-3H-imidazo(4,5-f)quinoline; 3-methyl-3H-imidazo(4,5-f)quinolin-2-amine; IQ.

$$$$
369
  

  8  7  0  0  0  0  0  0  0  0999 V2000
   17.3916  -15.5007   -0.0002 O   0  0  0  0  0  0  0  0  0  1  0  0
   18.6276  -15.5247   -0.0003 C   0  0  0  0  0  0  0  0  0  2  0  0
   19.3490  -14.3291    0.0005 N   0  0  0  0  0  0  0  0  0  3  0  0
   20.6787  -14.3548    0.0002 N   0  0  0  0  0  0  0  0  0  4  0  0
   19.1107  -16.4002   -0.0010 H   0  0  0  0  0  0  0  0  0  0  0  0
   18.8659  -13.4535    0.0013 H   0  0  0  0  0  0  0  0  0  0  0  0
   21.1954  -13.4987    0.0007 H   0  0  0  0  0  0  0  0  0  0  0  0
   21.1618  -15.2304   -0.0007 H   0  0  0  0  0  0  0  0  0  0  0  0
  1  2  2  0  0  0  0
  2  3  1  0  0  0  0
  3  4  1  0  0  0  0
  2  5  1  0  0  0  0
  3  6  1  0  0  0  0
  4  7  1  0  0  0  0
  4  8  1  0  0  0  0
M  END
>  <Substance ID> (369)
369

>  <Mouse_Female_Canc> (369)
3

>  <SAL> (369)
ND

>  <Rat_Male_Canc> (369)
ND

>  <TD50_Rat> (369)
ND

>  <TD50_Mouse> (369)
36.4

>  <Rat_Female_Canc> (369)
ND

>  <Canc> (369)
3

>  <MolWeight> (369)
60.06

>  <Mouse_Male_Canc> (369)
3

>  <Mouse_Male_NTP> (369)
ND

>  <ChemName> (369)
Formylhydrazine

>  <Rat_Male_NTP> (369)
ND

>  <Reference> (369)
CPDB

>  <Formula> (369)
CH4N2O

>  <SMILES> (369)
O=CNN

>  <Rat_Female_NTP> (369)
ND

>  <CAS> (369)
624-84-0

>  <Mouse_Female_NTP> (369)
ND

>  <Synonyms> (369)
Formic acid hydrazide; Hydrazinecarboxaldehyde; N-Formylhyrazine.

$$$$
370


 26 28  0  0  0  0  0  0  0  0999 V2000
    4.9452  -64.7271    0.0047 N   0  0  0  0  0  0  0  0  0  0  0  0
    3.7787  -63.8304    0.0047 C   0  0  0  0  0  0  0  0  0  0  0  0
    4.1207  -62.5605   -0.0041 C   0  0  0  0  0  0  0  0  0  0  0  0
    1.8603  -61.8285   -0.0079 C   0  0  0  0  0  0  0  0  0  0  0  0
    1.4600  -63.2699    0.0064 C   0  0  0  0  0  0  0  0  0  0  0  0
    3.1530  -61.4866   -0.0114 C   0  0  0  0  0  0  0  0  0  0  0  0
    2.3882  -64.2325    0.0121 C   0  0  0  0  0  0  0  0  0  0  0  0
    5.5195  -62.4834   -0.0053 C   0  0  0  0  0  0  0  0  0  0  0  0
    6.0044  -63.7059   -0.0031 C   0  0  0  0  0  0  0  0  0  0  0  0
    8.1836  -62.9577   -0.0037 C   0  0  0  0  0  0  0  0  0  0  0  0
    7.6760  -61.5516    0.0023 C   0  0  0  0  0  0  0  0  0  0  0  0
    7.3729  -63.9472   -0.0054 N   0  0  0  0  0  0  0  0  0  0  0  0
    6.3621  -61.3202   -0.0020 C   0  0  0  0  0  0  0  0  0  0  0  0
    9.5577  -63.1958   -0.0077 N   0  0  0  0  0  0  0  0  0  0  0  0
    8.6449  -60.4054    0.0174 C   0  0  0  0  0  0  0  0  0  0  0  0
    5.0011  -65.7255    0.0088 H   0  0  0  0  0  0  0  0  0  0  0  0
    1.1576  -61.1171   -0.0149 H   0  0  0  0  0  0  0  0  0  0  0  0
    0.4906  -63.5155    0.0117 H   0  0  0  0  0  0  0  0  0  0  0  0
    3.4383  -60.5282   -0.0187 H   0  0  0  0  0  0  0  0  0  0  0  0
    2.1301  -65.1986    0.0212 H   0  0  0  0  0  0  0  0  0  0  0  0
    5.9868  -60.3933   -0.0029 H   0  0  0  0  0  0  0  0  0  0  0  0
    9.9026  -64.1344   -0.0117 H   0  0  0  0  0  0  0  0  0  0  0  0
   10.1982  -62.4278   -0.0067 H   0  0  0  0  0  0  0  0  0  0  0  0
    8.1405  -59.5420    0.0196 H   0  0  0  0  0  0  0  0  0  0  0  0
    9.2263  -60.4492   -0.7951 H   0  0  0  0  0  0  0  0  0  0  0  0
    9.2142  -60.4604    0.8376 H   0  0  0  0  0  0  0  0  0  0  0  0
  2  1  1  0  0  0  0
  1  9  1  0  0  0  0
  8  3  1  0  0  0  0
  2  3  2  0  0  0  0
  4  5  1  0  0  0  0
  2  7  1  0  0  0  0
  3  6  1  0  0  0  0
  6  4  2  0  0  0  0
  5  7  2  0  0  0  0
  8  9  2  0  0  0  0
 10 11  1  0  0  0  0
  8 13  1  0  0  0  0
  9 12  1  0  0  0  0
 12 10  2  0  0  0  0
 11 13  2  0  0  0  0
 10 14  1  0  0  0  0
 11 15  1  0  0  0  0
  1 16  1  0  0  0  0
  4 17  1  0  0  0  0
  5 18  1  0  0  0  0
  6 19  1  0  0  0  0
  7 20  1  0  0  0  0
 13 21  1  0  0  0  0
 14 22  1  0  0  0  0
 14 23  1  0  0  0  0
 15 24  1  0  0  0  0
 15 25  1  0  0  0  0
 15 26  1  0  0  0  0
M  END
>  <Substance ID> (370)
370

>  <Mouse_Female_Canc> (370)
3

>  <SAL> (370)
3

>  <Rat_Male_Canc> (370)
3

>  <TD50_Rat> (370)
6.7

>  <TD50_Mouse> (370)
22.2

>  <Rat_Female_Canc> (370)
ND

>  <Canc> (370)
3

>  <MolWeight> (370)
197.25

>  <Mouse_Male_Canc> (370)
3

>  <Mouse_Male_NTP> (370)
ND

>  <ChemName> (370)
2-Amino-3-methyl-9H-pyrido[2,3-b]indole

>  <Rat_Male_NTP> (370)
ND

>  <Reference> (370)
CPDB

>  <Formula> (370)
C12H11N3

>  <SMILES> (370)
n2c(c(cc3c1c(cccc1)nc23)C)N

>  <Rat_Female_NTP> (370)
ND

>  <CAS> (370)
68006-83-7

>  <Mouse_Female_NTP> (370)
ND

>  <Synonyms> (370)
Me-A-alpha-C; MeA-C.

$$$$
371


 23 24  0  0  0  0  0  0  0  0999 V2000
   11.5067  -70.6615    0.0074 C   0  0  0  0  0  0  0  0  0  0  0  0
   10.9551  -71.8780    0.0034 C   0  0  0  0  0  0  0  0  0  0  0  0
   13.2235  -70.8164    0.0141 S   0  0  0  0  0  0  0  0  0  0  0  0
    8.7661  -73.2497    0.0075 O   0  0  0  0  0  0  0  0  0  0  0  0
    9.4852  -72.0216   -0.0021 C   0  0  0  0  0  0  0  0  0  0  0  0
    8.6943  -70.9551   -0.0173 C   0  0  0  0  0  0  0  0  0  0  0  0
    7.3616  -71.4195   -0.0194 C   0  0  0  0  0  0  0  0  0  0  0  0
    7.4238  -72.7414   -0.0038 C   0  0  0  0  0  0  0  0  0  0  0  0
   14.2695  -73.3419    0.0085 N   0  0  0  0  0  0  0  0  0  0  0  0
   15.4473  -72.7013    0.0113 N   0  0  0  0  0  0  0  0  0  0  0  0
   16.6626  -73.3857   -0.0015 C   0  0  0  0  0  0  0  0  0  0  0  0
   16.6924  -74.6200   -0.0194 O   0  0  0  0  0  0  0  0  0  0  0  0
   11.9072  -72.9765    0.0042 N   0  0  0  0  0  0  0  0  0  0  0  0
   13.1199  -72.5502    0.0086 C   0  0  0  0  0  0  0  0  0  0  0  0
    6.2772  -73.5294   -0.0000 N   0  3  0  0  0  0  0  0  0  0  0  0
    5.0835  -72.9490   -0.0182 O   0  5  0  0  0  0  0  0  0  0  0  0
    6.3632  -74.6984    0.0168 O   0  0  0  0  0  0  0  0  0  0  0  0
   11.0033  -69.7974    0.0065 H   0  0  0  0  0  0  0  0  0  0  0  0
    8.9886  -69.9994   -0.0258 H   0  0  0  0  0  0  0  0  0  0  0  0
    6.5330  -70.8597   -0.0304 H   0  0  0  0  0  0  0  0  0  0  0  0
   14.2171  -74.3405    0.0064 H   0  0  0  0  0  0  0  0  0  0  0  0
   15.4547  -71.7014    0.0230 H   0  0  0  0  0  0  0  0  0  0  0  0
   17.5198  -72.8708    0.0039 H   0  0  0  0  0  0  0  0  0  0  0  0
  1  2  2  0  0  0  0
 13 14  2  0  0  0  0
  3  1  1  0  0  0  0
  7  8  2  0  0  0  0
  5  6  2  0  0  0  0
  4  5  1  0  0  0  0
  6  7  1  0  0  0  0
  8  4  1  0  0  0  0
  5  2  1  0  0  0  0
 14  9  1  0  0  0  0
  9 10  1  0  0  0  0
 10 11  1  0  0  0  0
 11 12  2  0  0  0  0
  2 13  1  0  0  0  0
  3 14  1  0  0  0  0
 15 16  1  0  0  0  0
 15 17  2  0  0  0  0
  8 15  1  0  0  0  0
  1 18  1  0  0  0  0
  6 19  1  0  0  0  0
  7 20  1  0  0  0  0
  9 21  1  0  0  0  0
 10 22  1  0  0  0  0
 11 23  1  0  0  0  0
M  END
>  <Substance ID> (371)
371

>  <Mouse_Female_Canc> (371)
3

>  <SAL> (371)
3

>  <Rat_Male_Canc> (371)
3

>  <TD50_Rat> (371)
5.06

>  <TD50_Mouse> (371)
10.8

>  <Rat_Female_Canc> (371)
3

>  <Canc> (371)
3

>  <MolWeight> (371)
254.22

>  <Mouse_Male_Canc> (371)
ND

>  <Mouse_Male_NTP> (371)
ND

>  <ChemName> (371)
Nifurthiazole

>  <Rat_Male_NTP> (371)
ND

>  <Reference> (371)
CPDB

>  <Formula> (371)
C8H6N4O4S

>  <SMILES> (371)
[O-][N+](=O)C1=CC=C(O1)C2=CSC(=N2)NNC=O

>  <Rat_Female_NTP> (371)
ND

>  <CAS> (371)
3570-75-0

>  <Mouse_Female_NTP> (371)
ND

>  <Synonyms> (371)
2-(2-Formylhydrazino)-4-(5-nitro-2-furyl)thiazole; FNT; Formic acid 2-[4-(5-nitro-2-furyl)-2-thiazolyl]hydrazide; Formylhydrazino-4-(5-nitro-2-furyl)thiazole.

$$$$
372


 13 12  0  0  0  0  0  0  0  0999 V2000
    2.5918  -86.4052    0.0006 N   0  0  0  0  0  0  0  0  0  0  0  0
    3.7374  -85.6010    0.0000 N   0  0  0  0  0  0  0  0  0  0  0  0
    4.9345  -86.4535    0.0002 C   0  0  0  0  0  0  0  0  0  0  0  0
    6.1946  -85.5688   -0.0003 C   0  0  0  0  0  0  0  0  0  0  0  0
    7.3595  -86.3980   -0.0001 O   0  0  0  0  0  0  0  0  0  0  0  0
    1.7770  -85.8255    0.0005 H   0  0  0  0  0  0  0  0  0  0  0  0
    2.5895  -86.9823    0.8173 H   0  0  0  0  0  0  0  0  0  0  0  0
    3.7391  -85.0243   -0.8169 H   0  0  0  0  0  0  0  0  0  0  0  0
    4.9327  -87.0303    0.8171 H   0  0  0  0  0  0  0  0  0  0  0  0
    4.9325  -87.0309   -0.8162 H   0  0  0  0  0  0  0  0  0  0  0  0
    6.1964  -84.9921   -0.8172 H   0  0  0  0  0  0  0  0  0  0  0  0
    6.1966  -84.9914    0.8161 H   0  0  0  0  0  0  0  0  0  0  0  0
    8.1780  -85.8236   -0.0004 H   0  0  0  0  0  0  0  0  0  0  0  0
  1  2  1  0  0  0  0
  2  3  1  0  0  0  0
  3  4  1  0  0  0  0
  4  5  1  0  0  0  0
  1  6  1  0  0  0  0
  1  7  1  0  0  0  0
  2  8  1  0  0  0  0
  3  9  1  0  0  0  0
  3 10  1  0  0  0  0
  4 11  1  0  0  0  0
  4 12  1  0  0  0  0
  5 13  1  0  0  0  0
M  END
>  <Substance ID> (372)
372

>  <Mouse_Female_Canc> (372)
1

>  <SAL> (372)
3

>  <Rat_Male_Canc> (372)
ND

>  <TD50_Rat> (372)
ND

>  <TD50_Mouse> (372)
0.397

>  <Rat_Female_Canc> (372)
ND

>  <Canc> (372)
3

>  <MolWeight> (372)
76.10

>  <Mouse_Male_Canc> (372)
3

>  <Mouse_Male_NTP> (372)
ND

>  <ChemName> (372)
2-Hydroxyethylhydrazine

>  <Rat_Male_NTP> (372)
ND

>  <Reference> (372)
CPDB

>  <Formula> (372)
C2H8N2O

>  <SMILES> (372)
OCCNN

>  <Rat_Female_NTP> (372)
ND

>  <CAS> (372)
109-84-2

>  <Mouse_Female_NTP> (372)
ND

>  <Synonyms> (372)
2-Hydrazinoethanol; beta-Hydroxyethyl hydrazine; BOH; Hydrazinoethanol; Hydroxyethylhydrazine; Omaflora.

$$$$
373


 30 29  0  0  0  0  0  0  0  0999 V2000
    1.6815  -91.1295    0.0002 C   0  0  0  0  0  0  0  0  0  0  0  0
    2.9690  -90.2856    0.0004 C   0  0  0  0  0  0  0  0  0  0  0  0
    4.1934  -91.2182    0.0001 C   0  0  0  0  0  0  0  0  0  0  0  0
    5.4803  -90.3746    0.0003 C   0  0  0  0  0  0  0  0  0  0  0  0
    6.6481  -91.2650    0.0001 N   0  0  0  0  0  0  0  0  0  0  0  0
    7.8180  -90.4986    0.0002 N   0  0  0  0  0  0  0  0  0  0  0  0
    8.9856  -91.3894   -0.0001 C   0  0  0  0  0  0  0  0  0  0  0  0
   10.2730  -90.5467    0.0001 C   0  0  0  0  0  0  0  0  0  0  0  0
   11.4966  -91.4805   -0.0002 C   0  0  0  0  0  0  0  0  0  0  0  0
   12.7849  -90.6378   -0.0000 C   0  0  0  0  0  0  0  0  0  0  0  0
    0.8856  -90.5242    0.0003 H   0  0  0  0  0  0  0  0  0  0  0  0
    1.6607  -91.7069    0.8165 H   0  0  0  0  0  0  0  0  0  0  0  0
    1.6607  -91.7065   -0.8163 H   0  0  0  0  0  0  0  0  0  0  0  0
    2.9894  -89.7086   -0.8162 H   0  0  0  0  0  0  0  0  0  0  0  0
    2.9894  -89.7090    0.8171 H   0  0  0  0  0  0  0  0  0  0  0  0
    4.1730  -91.7952    0.8166 H   0  0  0  0  0  0  0  0  0  0  0  0
    4.1730  -91.7948   -0.8167 H   0  0  0  0  0  0  0  0  0  0  0  0
    5.5008  -89.7977   -0.8162 H   0  0  0  0  0  0  0  0  0  0  0  0
    5.5008  -89.7980    0.8171 H   0  0  0  0  0  0  0  0  0  0  0  0
    6.6275  -91.8420    0.8166 H   0  0  0  0  0  0  0  0  0  0  0  0
    7.8387  -89.9216   -0.8163 H   0  0  0  0  0  0  0  0  0  0  0  0
    8.9648  -91.9664    0.8165 H   0  0  0  0  0  0  0  0  0  0  0  0
    8.9647  -91.9660   -0.8168 H   0  0  0  0  0  0  0  0  0  0  0  0
   10.2938  -89.9698   -0.8164 H   0  0  0  0  0  0  0  0  0  0  0  0
   10.2939  -89.9701    0.8169 H   0  0  0  0  0  0  0  0  0  0  0  0
   11.4757  -92.0575    0.8163 H   0  0  0  0  0  0  0  0  0  0  0  0
   11.4756  -92.0571   -0.8169 H   0  0  0  0  0  0  0  0  0  0  0  0
   13.5802  -91.2440   -0.0002 H   0  0  0  0  0  0  0  0  0  0  0  0
   12.8063  -90.0609    0.8165 H   0  0  0  0  0  0  0  0  0  0  0  0
   12.8063  -90.0605   -0.8163 H   0  0  0  0  0  0  0  0  0  0  0  0
  1  2  1  0  0  0  0
  2  3  1  0  0  0  0
  3  4  1  0  0  0  0
  4  5  1  0  0  0  0
  5  6  1  0  0  0  0
  6  7  1  0  0  0  0
  7  8  1  0  0  0  0
  8  9  1  0  0  0  0
  9 10  1  0  0  0  0
  1 11  1  0  0  0  0
  1 12  1  0  0  0  0
  1 13  1  0  0  0  0
  2 14  1  0  0  0  0
  2 15  1  0  0  0  0
  3 16  1  0  0  0  0
  3 17  1  0  0  0  0
  4 18  1  0  0  0  0
  4 19  1  0  0  0  0
  5 20  1  0  0  0  0
  6 21  1  0  0  0  0
  7 22  1  0  0  0  0
  7 23  1  0  0  0  0
  8 24  1  0  0  0  0
  8 25  1  0  0  0  0
  9 26  1  0  0  0  0
  9 27  1  0  0  0  0
 10 28  1  0  0  0  0
 10 29  1  0  0  0  0
 10 30  1  0  0  0  0
M  END
>  <Substance ID> (373)
373

>  <Mouse_Female_Canc> (373)
3

>  <SAL> (373)
ND

>  <Rat_Male_Canc> (373)
ND

>  <TD50_Rat> (373)
ND

>  <TD50_Mouse> (373)
46.2

>  <Rat_Female_Canc> (373)
ND

>  <Canc> (373)
3

>  <MolWeight> (373)
144.26

>  <Mouse_Male_Canc> (373)
3

>  <Mouse_Male_NTP> (373)
ND

>  <ChemName> (373)
1,2-Di-n-butylhydrazine Dihydrochloride

>  <Rat_Male_NTP> (373)
ND

>  <Reference> (373)
CPDB

>  <Formula> (373)
C8H20N2 

>  <SMILES> (373)
N(NCCCC)CCCC

>  <Rat_Female_NTP> (373)
ND

>  <CAS> (373)
78776-28-0

>  <Mouse_Female_NTP> (373)
ND

>  <Synonyms> (373)
-

$$$$
374


 22 23  0  0  0  0  0  0  0  0999 V2000
   36.1266   -4.5523   -0.0018 N   0  0  0  0  0  0  0  0  0  0  0  0
   37.3824   -4.3169   -0.0027 C   0  0  0  0  0  0  0  0  0  0  0  0
   37.7392   -2.6114   -0.0017 S   0  0  0  0  0  0  0  0  0  0  0  0
   36.0445   -2.2130    0.0019 C   0  0  0  0  0  0  0  0  0  0  0  0
   35.3392   -3.3483    0.0006 C   0  0  0  0  0  0  0  0  0  0  0  0
   33.8728   -3.3580    0.0009 C   0  0  0  0  0  0  0  0  0  0  0  0
   33.2040   -2.2062    0.0007 C   0  0  0  0  0  0  0  0  0  0  0  0
   31.0744   -3.3588    0.0002 C   0  0  0  0  0  0  0  0  0  0  0  0
   31.8074   -4.6288   -0.0011 C   0  0  0  0  0  0  0  0  0  0  0  0
   31.7411   -2.2062    0.0009 C   0  0  0  0  0  0  0  0  0  0  0  0
   33.1404   -4.6284   -0.0002 C   0  0  0  0  0  0  0  0  0  0  0  0
   38.3617   -5.3135    0.0026 N   0  0  0  0  0  0  0  0  0  0  0  0
   29.6762   -3.3551    0.0004 N   0  3  0  0  0  0  0  0  0  0  0  0
   29.0167   -2.2053   -0.0006 O   0  5  0  0  0  0  0  0  0  0  0  0
   29.0849   -4.3711    0.0002 O   0  0  0  0  0  0  0  0  0  0  0  0
   35.6625   -1.2889    0.0046 H   0  0  0  0  0  0  0  0  0  0  0  0
   33.7029   -1.3395    0.0003 H   0  0  0  0  0  0  0  0  0  0  0  0
   31.3075   -5.4949   -0.0028 H   0  0  0  0  0  0  0  0  0  0  0  0
   31.2415   -1.3399    0.0016 H   0  0  0  0  0  0  0  0  0  0  0  0
   33.6408   -5.4942   -0.0002 H   0  0  0  0  0  0  0  0  0  0  0  0
   39.3298   -5.0631    0.0015 H   0  0  0  0  0  0  0  0  0  0  0  0
   38.0944   -6.2771    0.0075 H   0  0  0  0  0  0  0  0  0  0  0  0
  1  2  2  0  0  0  0
  3  4  1  0  0  0  0
  4  5  2  0  0  0  0
  5  1  1  0  0  0  0
  2  3  1  0  0  0  0
  5  6  1  0  0  0  0
  6  7  2  0  0  0  0
  8  9  1  0  0  0  0
  6 11  1  0  0  0  0
  7 10  1  0  0  0  0
 10  8  2  0  0  0  0
  9 11  2  0  0  0  0
  2 12  1  0  0  0  0
 13 14  1  0  0  0  0
 13 15  2  0  0  0  0
  8 13  1  0  0  0  0
  4 16  1  0  0  0  0
  7 17  1  0  0  0  0
  9 18  1  0  0  0  0
 10 19  1  0  0  0  0
 11 20  1  0  0  0  0
 12 21  1  0  0  0  0
 12 22  1  0  0  0  0
M  END
>  <Substance ID> (374)
374

>  <Mouse_Female_Canc> (374)
3

>  <SAL> (374)
ND

>  <Rat_Male_Canc> (374)
ND

>  <TD50_Rat> (374)
ND

>  <TD50_Mouse> (374)
9.95

>  <Rat_Female_Canc> (374)
ND

>  <Canc> (374)
3

>  <MolWeight> (374)
221.23

>  <Mouse_Male_Canc> (374)
ND

>  <Mouse_Male_NTP> (374)
ND

>  <ChemName> (374)
2-Amino-4-(p-nitrophenyl)thiazole

>  <Rat_Male_NTP> (374)
ND

>  <Reference> (374)
CPDB

>  <Formula> (374)
C9H7N3O2S

>  <SMILES> (374)
[O-][N+](=O)c2ccc(c1nc(sc1)N)cc2

>  <Rat_Female_NTP> (374)
ND

>  <CAS> (374)
2104-09-8

>  <Mouse_Female_NTP> (374)
ND

>  <Synonyms> (374)
-

$$$$
375


 18 17  0  0  0  0  0  0  0  0999 V2000
   31.3333  -12.9431   -0.0003 C   0  0  0  0  0  0  0  0  0  0  0  0
   32.5995  -12.0675   -0.0003 C   0  0  0  0  0  0  0  0  0  0  0  0
   33.8467  -12.9695   -0.0003 C   0  0  0  0  0  0  0  0  0  0  0  0
   35.1122  -12.0940   -0.0003 C   0  0  0  0  0  0  0  0  0  0  0  0
   36.3028  -12.9549   -0.0003 N   0  0  0  0  0  0  0  0  0  0  0  0
   37.4540  -12.1590   -0.0004 N   0  0  0  0  0  0  0  0  0  0  0  0
   30.5226  -12.3576   -0.0003 H   0  0  0  0  0  0  0  0  0  0  0  0
   31.3268  -13.5206    0.8161 H   0  0  0  0  0  0  0  0  0  0  0  0
   31.3268  -13.5206   -0.8167 H   0  0  0  0  0  0  0  0  0  0  0  0
   32.6056  -11.4904   -0.8170 H   0  0  0  0  0  0  0  0  0  0  0  0
   32.6056  -11.4904    0.8163 H   0  0  0  0  0  0  0  0  0  0  0  0
   33.8406  -13.5466    0.8164 H   0  0  0  0  0  0  0  0  0  0  0  0
   33.8406  -13.5467   -0.8169 H   0  0  0  0  0  0  0  0  0  0  0  0
   35.1182  -11.5169   -0.8170 H   0  0  0  0  0  0  0  0  0  0  0  0
   35.1182  -11.5169    0.8163 H   0  0  0  0  0  0  0  0  0  0  0  0
   36.2967  -13.5320    0.8163 H   0  0  0  0  0  0  0  0  0  0  0  0
   38.2646  -12.7445   -0.0004 H   0  0  0  0  0  0  0  0  0  0  0  0
   37.4605  -11.5814    0.8160 H   0  0  0  0  0  0  0  0  0  0  0  0
  1  2  1  0  0  0  0
  2  3  1  0  0  0  0
  3  4  1  0  0  0  0
  4  5  1  0  0  0  0
  5  6  1  0  0  0  0
  1  7  1  0  0  0  0
  1  8  1  0  0  0  0
  1  9  1  0  0  0  0
  2 10  1  0  0  0  0
  2 11  1  0  0  0  0
  3 12  1  0  0  0  0
  3 13  1  0  0  0  0
  4 14  1  0  0  0  0
  4 15  1  0  0  0  0
  5 16  1  0  0  0  0
  6 17  1  0  0  0  0
  6 18  1  0  0  0  0
M  END
>  <Substance ID> (375)
375

>  <Mouse_Female_Canc> (375)
3

>  <SAL> (375)
ND

>  <Rat_Male_Canc> (375)
ND

>  <TD50_Rat> (375)
ND

>  <TD50_Mouse> (375)
12.1

>  <Rat_Female_Canc> (375)
ND

>  <Canc> (375)
3

>  <MolWeight> (375)
88.15

>  <Mouse_Male_Canc> (375)
3

>  <Mouse_Male_NTP> (375)
ND

>  <ChemName> (375)
N-butylhydrazine Hydrochloride

>  <Rat_Male_NTP> (375)
ND

>  <Reference> (375)
CPDB

>  <Formula> (375)
C4H12N2

>  <SMILES> (375)
NNCCCC

>  <Rat_Female_NTP> (375)
ND

>  <CAS> (375)
56795-65-4

>  <Mouse_Female_NTP> (375)
ND

>  <Synonyms> (375)
-

$$$$
376


 18 19  0  0  0  0  0  0  0  0999 V2000
   39.8412  -18.7660    0.0078 N   0  0  0  0  0  0  0  0  0  0  0  0
   39.1382  -19.8232    0.0012 C   0  0  0  0  0  0  0  0  0  0  0  0
   39.9148  -20.9917   -0.0049 O   0  0  0  0  0  0  0  0  0  0  0  0
   41.1802  -20.3746   -0.0004 C   0  0  0  0  0  0  0  0  0  0  0  0
   41.1105  -19.1072    0.0069 N   0  0  0  0  0  0  0  0  0  0  0  0
   35.6053  -19.0091   -0.0076 C   0  0  0  0  0  0  0  0  0  0  0  0
   35.5498  -20.3334   -0.0008 C   0  0  0  0  0  0  0  0  0  0  0  0
   36.8364  -20.9518    0.0023 O   0  0  0  0  0  0  0  0  0  0  0  0
   37.6697  -19.7962   -0.0010 C   0  0  0  0  0  0  0  0  0  0  0  0
   36.9856  -18.6589   -0.0060 C   0  0  0  0  0  0  0  0  0  0  0  0
   42.3888  -21.0760   -0.0049 N   0  0  0  0  0  0  0  0  0  0  0  0
   34.3382  -21.0356    0.0021 N   0  3  0  0  0  0  0  0  0  0  0  0
   33.1902  -20.3685   -0.0009 O   0  5  0  0  0  0  0  0  0  0  0  0
   34.3336  -22.2102    0.0050 O   0  0  0  0  0  0  0  0  0  0  0  0
   34.8291  -18.3787   -0.0128 H   0  0  0  0  0  0  0  0  0  0  0  0
   37.3661  -17.7341   -0.0082 H   0  0  0  0  0  0  0  0  0  0  0  0
   43.2559  -20.5780   -0.0014 H   0  0  0  0  0  0  0  0  0  0  0  0
   42.3865  -22.0759   -0.0116 H   0  0  0  0  0  0  0  0  0  0  0  0
  1  2  2  0  0  0  0
  2  3  1  0  0  0  0
  3  4  1  0  0  0  0
  4  5  2  0  0  0  0
  1  5  1  0  0  0  0
  6  7  2  0  0  0  0
  7  8  1  0  0  0  0
  8  9  1  0  0  0  0
  9 10  2  0  0  0  0
  6 10  1  0  0  0  0
  9  2  1  0  0  0  0
  4 11  1  0  0  0  0
 12 13  1  0  0  0  0
 12 14  2  0  0  0  0
  7 12  1  0  0  0  0
  6 15  1  0  0  0  0
 10 16  1  0  0  0  0
 11 17  1  0  0  0  0
 11 18  1  0  0  0  0
M  END
>  <Substance ID> (376)
376

>  <Mouse_Female_Canc> (376)
ND

>  <SAL> (376)
ND

>  <Rat_Male_Canc> (376)
ND

>  <TD50_Rat> (376)
3.67

>  <TD50_Mouse> (376)
ND

>  <Rat_Female_Canc> (376)
3

>  <Canc> (376)
3

>  <MolWeight> (376)
196.12

>  <Mouse_Male_Canc> (376)
ND

>  <Mouse_Male_NTP> (376)
ND

>  <ChemName> (376)
2-Amino-5-(5-nitro-2-furyl)-1,3,4-oxadiazole

>  <Rat_Male_NTP> (376)
ND

>  <Reference> (376)
CPDB

>  <Formula> (376)
C6H4N4O4

>  <SMILES> (376)
[O-][N+](=O)c2oc(c1nnc(o1)N)cc2

>  <Rat_Female_NTP> (376)
ND

>  <CAS> (376)
3775-55-1

>  <Mouse_Female_NTP> (376)
ND

>  <Synonyms> (376)
-

$$$$
377


 36 38  0  0  0  0  0  0  0  0999 V2000
   28.4130  -24.0247    0.0309 N   0  0  0  0  0  0  0  0  0  0  0  0
   27.0281  -24.4551   -0.2686 C   0  0  1  0  0  0  0  0  0  0  0  0
   29.6013  -24.7808   -0.0483 C   0  0  0  0  0  0  0  0  0  0  0  0
   28.8655  -22.6501    0.0225 C   0  0  0  0  0  0  0  0  0  0  0  0
   26.6695  -25.7606    0.2927 C   0  0  1  0  0  0  0  0  0  0  0  0
   25.9895  -23.6758    0.5662 O   0  0  0  0  0  0  0  0  0  0  0  0
   30.6111  -23.9580    0.0218 C   0  0  0  0  0  0  0  0  0  0  0  0
   29.7788  -26.1446   -0.1694 N   0  0  0  0  0  0  0  0  0  0  0  0
   30.1490  -22.6336    0.0794 N   0  0  0  0  0  0  0  0  0  0  0  0
   25.1499  -25.8448    0.1219 C   0  0  2  0  0  0  0  0  0  0  0  0
   27.3516  -26.9595   -0.0619 O   0  0  0  0  0  0  0  0  0  0  0  0
   24.8847  -24.3182    0.0133 C   0  0  2  0  0  0  0  0  0  0  0  0
   31.9770  -24.4622   -0.0073 C   0  0  0  0  0  0  0  0  0  0  0  0
   30.9734  -26.6021   -0.1888 C   0  0  0  0  0  0  0  0  0  0  0  0
   24.5695  -26.3699   -1.0766 O   0  0  0  0  0  0  0  0  0  0  0  0
   23.4697  -23.8792    0.3822 C   0  0  0  0  0  0  0  0  0  0  0  0
   32.1115  -25.7294   -0.1017 N   0  0  0  0  0  0  0  0  0  0  0  0
   33.1311  -23.6094    0.0631 N   0  0  0  0  0  0  0  0  0  0  0  0
   23.3537  -22.4734    0.1603 O   0  0  0  0  0  0  0  0  0  0  0  0
   34.3642  -24.1319    0.0510 N   0  0  0  0  0  0  0  0  0  0  0  0
   33.0047  -22.1790    0.1450 C   0  0  0  0  0  0  0  0  0  0  0  0
   34.5388  -25.2928   -0.0026 O   0  0  0  0  0  0  0  0  0  0  0  0
   27.0124  -24.3709   -1.2649 H   0  0  0  0  0  0  0  0  0  0  0  0
   28.2752  -21.8440   -0.0205 H   0  0  0  0  0  0  0  0  0  0  0  0
   27.0093  -25.7530    1.2331 H   0  0  0  0  0  0  0  0  0  0  0  0
   24.7788  -26.4434    0.8318 H   0  0  0  0  0  0  0  0  0  0  0  0
   26.9503  -27.7306    0.4325 H   0  0  0  0  0  0  0  0  0  0  0  0
   24.8347  -24.0050   -0.9351 H   0  0  0  0  0  0  0  0  0  0  0  0
   31.1182  -27.5885   -0.2662 H   0  0  0  0  0  0  0  0  0  0  0  0
   23.5725  -26.3446   -1.0035 H   0  0  0  0  0  0  0  0  0  0  0  0
   22.8074  -24.3655   -0.1877 H   0  0  0  0  0  0  0  0  0  0  0  0
   23.2947  -24.0832    1.3454 H   0  0  0  0  0  0  0  0  0  0  0  0
   22.4302  -22.1730    0.3985 H   0  0  0  0  0  0  0  0  0  0  0  0
   33.9142  -21.7653    0.1853 H   0  0  0  0  0  0  0  0  0  0  0  0
   32.4917  -21.9358    0.9682 H   0  0  0  0  0  0  0  0  0  0  0  0
   32.5203  -21.8399   -0.6615 H   0  0  0  0  0  0  0  0  0  0  0  0
  2  1  1  1  0  0  0
  1  3  1  0  0  0  0
  1  4  1  0  0  0  0
  5  2  1  0  0  0  0
  2  6  1  0  0  0  0
  3  7  2  0  0  0  0
  3  8  1  0  0  0  0
  4  9  2  0  0  0  0
  5 10  1  0  0  0  0
  5 11  1  6  0  0  0
  6 12  1  0  0  0  0
  7 13  1  0  0  0  0
  8 14  2  0  0  0  0
 10 15  1  6  0  0  0
 12 16  1  1  0  0  0
 13 17  2  0  0  0  0
 13 18  1  0  0  0  0
 16 19  1  0  0  0  0
  7  9  1  0  0  0  0
 10 12  1  0  0  0  0
 14 17  1  0  0  0  0
 18 20  1  0  0  0  0
 18 21  1  0  0  0  0
 20 22  2  0  0  0  0
  2 23  1  0  0  0  0
  4 24  1  0  0  0  0
  5 25  1  0  0  0  0
 10 26  1  0  0  0  0
 11 27  1  0  0  0  0
 12 28  1  0  0  0  0
 14 29  1  0  0  0  0
 15 30  1  0  0  0  0
 16 31  1  0  0  0  0
 16 32  1  0  0  0  0
 19 33  1  0  0  0  0
 21 34  1  0  0  0  0
 21 35  1  0  0  0  0
 21 36  1  0  0  0  0
M  END
>  <Substance ID> (377)
377

>  <Mouse_Female_Canc> (377)
3

>  <SAL> (377)
ND

>  <Rat_Male_Canc> (377)
ND

>  <TD50_Rat> (377)
ND

>  <TD50_Mouse> (377)
18.3

>  <Rat_Female_Canc> (377)
ND

>  <Canc> (377)
3

>  <MolWeight> (377)
310.27

>  <Mouse_Male_Canc> (377)
3

>  <Mouse_Male_NTP> (377)
ND

>  <ChemName> (377)
N6-methyl-N6-nitroso-adenosine

>  <Rat_Male_NTP> (377)
ND

>  <Reference> (377)
CPDB

>  <Formula> (377)
C11H14N6O5

>  <SMILES> (377)
O=NN(c3ncnc1c3ncn1[C@@H]2O[C@@H]([C@@H](O)[C@H]2O)CO)C

>  <Rat_Female_NTP> (377)
ND

>  <CAS> (377)
21928-82-5

>  <Mouse_Female_NTP> (377)
ND

>  <Synonyms> (377)
-

$$$$
378


  4  3  0  0  0  0  0  0  0  0999 V2000
   21.0900  -22.4585    0.0001 O   0  0  0  0  0  0  0  0  0  0  0  0
   22.2339  -21.7997   -0.0003 O   0  0  0  0  0  0  0  0  0  0  0  0
   20.3303  -21.8083    0.0003 H   0  0  0  0  0  0  0  0  0  0  0  0
   22.9936  -22.4499   -0.0004 H   0  0  0  0  0  0  0  0  0  0  0  0
  1  2  1  0  0  0  0
  1  3  1  0  0  0  0
  2  4  1  0  0  0  0
M  END
>  <Substance ID> (378)
378

>  <Mouse_Female_Canc> (378)
3

>  <SAL> (378)
3

>  <Rat_Male_Canc> (378)
ND

>  <TD50_Rat> (378)
ND

>  <TD50_Mouse> (378)
7540

>  <Rat_Female_Canc> (378)
ND

>  <Canc> (378)
3

>  <MolWeight> (378)
34.01

>  <Mouse_Male_Canc> (378)
1

>  <Mouse_Male_NTP> (378)
ND

>  <ChemName> (378)
Hydrogen peroxide

>  <Rat_Male_NTP> (378)
ND

>  <Reference> (378)
CPDB

>  <Formula> (378)
H2O2 

>  <SMILES> (378)
OO

>  <Rat_Female_NTP> (378)
ND

>  <CAS> (378)
7722-84-1

>  <Mouse_Female_NTP> (378)
ND

>  <Synonyms> (378)
Albone; dihydrogen dioxide; H2O2; Hioxy; hydrogen dioxide; HYDROGEN PEROXIDE, 30%; Hydroperoxide; Inhibine; Oxydol; Perhydrol; Peroxan; peroxide; superoxol; t-stuff.

$$$$
379


 20 19  0  0  0  0  0  0  0  0999 V2000
   37.1561  -45.6012    0.0794 N   0  0  0  0  0  0  0  0  0  0  0  0
   38.4467  -45.0847   -0.0731 N   0  0  0  0  0  0  0  0  0  0  0  0
   39.5134  -46.0530   -0.3267 C   0  0  0  0  0  0  0  0  0  0  0  0
   38.6544  -43.6268    0.3033 C   0  0  0  0  0  0  0  0  0  0  0  0
   40.7074  -45.7619   -0.3824 O   0  0  0  0  0  0  0  0  0  0  0  0
   39.9082  -42.8943   -0.2670 C   0  0  0  0  0  0  0  0  0  0  0  0
   41.1501  -43.1073    0.6358 C   0  0  0  0  0  0  0  0  0  0  0  0
   42.3619  -42.3820    0.0259 C   0  0  0  0  0  0  0  0  0  0  0  0
   36.5146  -44.8526    0.2471 H   0  0  0  0  0  0  0  0  0  0  0  0
   37.1390  -46.2338    0.8537 H   0  0  0  0  0  0  0  0  0  0  0  0
   39.2564  -47.0097   -0.4630 H   0  0  0  0  0  0  0  0  0  0  0  0
   37.8487  -43.1221   -0.0068 H   0  0  0  0  0  0  0  0  0  0  0  0
   38.7125  -43.5826    1.3006 H   0  0  0  0  0  0  0  0  0  0  0  0
   40.1054  -43.2510   -1.1801 H   0  0  0  0  0  0  0  0  0  0  0  0
   39.7135  -41.9152   -0.3259 H   0  0  0  0  0  0  0  0  0  0  0  0
   40.9661  -42.7390    1.5471 H   0  0  0  0  0  0  0  0  0  0  0  0
   41.3477  -44.0851    0.7045 H   0  0  0  0  0  0  0  0  0  0  0  0
   43.1621  -42.5203    0.6094 H   0  0  0  0  0  0  0  0  0  0  0  0
   42.1654  -41.4039   -0.0431 H   0  0  0  0  0  0  0  0  0  0  0  0
   42.5469  -42.7495   -0.8855 H   0  0  0  0  0  0  0  0  0  0  0  0
  1  2  1  0  0  0  0
  2  3  1  0  0  0  0
  2  4  1  0  0  0  0
  3  5  2  0  0  0  0
  4  6  1  0  0  0  0
  6  7  1  0  0  0  0
  7  8  1  0  0  0  0
  1  9  1  0  0  0  0
  1 10  1  0  0  0  0
  3 11  1  0  0  0  0
  4 12  1  0  0  0  0
  4 13  1  0  0  0  0
  6 14  1  0  0  0  0
  6 15  1  0  0  0  0
  7 16  1  0  0  0  0
  7 17  1  0  0  0  0
  8 18  1  0  0  0  0
  8 19  1  0  0  0  0
  8 20  1  0  0  0  0
M  END
>  <Substance ID> (379)
379

>  <Mouse_Female_Canc> (379)
3

>  <SAL> (379)
ND

>  <Rat_Male_Canc> (379)
ND

>  <TD50_Rat> (379)
ND

>  <TD50_Mouse> (379)
19.3

>  <Rat_Female_Canc> (379)
ND

>  <Canc> (379)
3

>  <MolWeight> (379)
116.16

>  <Mouse_Male_Canc> (379)
3

>  <Mouse_Male_NTP> (379)
ND

>  <ChemName> (379)
N-n-butyl-N-formylhydrazine

>  <Rat_Male_NTP> (379)
ND

>  <Reference> (379)
CPDB

>  <Formula> (379)
C5H12N2O

>  <SMILES> (379)
N(N)(CCCC)C=O

>  <Rat_Female_NTP> (379)
ND

>  <CAS> (379)
16120-70-0

>  <Mouse_Female_NTP> (379)
ND

>  <Synonyms> (379)
-

$$$$
380


 64 71  0  0  0  0  0  0  0  0999 V2000
   -0.0218    1.5289    0.0088 C   0  0  3  0  0  0  0  0  0  1  0  0
    0.0012   -0.0044    0.0006 C   0  0  3  0  0  0  0  0  0  2  0  0
    1.4539    2.0042   -0.0005 C   0  0  3  0  0  0  0  0  0  3  0  0
   -0.6735    2.1236   -1.2080 C   0  0  0  0  0  0  0  0  0  4  0  0
   -0.6890    2.0293    1.2648 C   0  0  0  0  0  0  0  0  0  5  0  0
    1.4342   -0.3197   -0.5536 C   0  0  3  0  0  0  0  0  0  6  0  0
   -0.8906   -0.5814   -1.1197 C   0  0  3  0  0  0  0  0  0  7  0  0
    2.2918    0.7107    0.2114 C   0  0  3  0  0  0  0  0  0  8  0  0
    1.8000    2.4135   -1.4255 C   0  0  0  0  0  0  0  0  0  9  0  0
   -0.7137    1.4596   -2.3866 C   0  0  0  0  0  0  0  0  0 10  0  0
   -1.2784    3.4079   -1.1413 C   0  0  0  0  0  0  0  0  0 11  0  0
   -1.0429    3.4543    1.3405 C   0  0  0  0  0  0  0  0  0 12  0  0
   -0.9265    1.2777    2.1868 O   0  0  0  0  0  0  0  0  0 13  0  0
    1.3035    0.0478   -2.0379 C   0  0  3  0  0  0  0  0  0 14  0  0
   -0.2061    0.0251   -2.3798 C   0  0  3  0  0  0  0  0  0 15  0  0
   -0.8346   -2.0092   -1.1394 O   0  0  0  0  0  0  0  0  0 16  0  0
    3.5900    0.8360   -0.3727 O   0  0  0  0  0  0  0  0  0 17  0  0
    1.8083    1.4290   -2.3539 C   0  0  0  0  0  0  0  0  0 18  0  0
    2.0834    3.6916   -1.7461 O   0  0  0  0  0  0  0  0  0 19  0  0
   -1.1803    2.0397   -3.5101 O   0  0  0  0  0  0  0  0  0 20  0  0
   -1.3308    4.1405    0.1373 C   0  0  0  0  0  0  0  0  0 21  0  0
   -1.7555    3.9060   -2.1452 O   0  0  0  0  0  0  0  0  0 22  0  0
   -1.0968    4.1300    2.5591 C   0  0  0  0  0  0  0  0  0 23  0  0
    2.0189   -0.9776   -2.8812 C   0  0  0  0  0  0  0  0  0 24  0  0
    2.2310    1.7464   -3.6718 C   0  0  0  0  0  0  0  0  0 25  0  0
   -1.6615    5.4928    0.1824 C   0  0  0  0  0  0  0  0  0 26  0  0
   -1.4323    5.4816    2.5805 C   0  0  0  0  0  0  0  0  0 27  0  0
   -0.8249    3.4754    3.7155 O   0  0  0  0  0  0  0  0  0 28  0  0
    2.2622   -0.6686   -4.2978 C   0  0  0  0  0  0  0  0  0 29  0  0
    2.3848   -2.0304   -2.4026 O   0  0  0  0  0  0  0  0  0 30  0  0
    2.3776    0.6863   -4.6857 C   0  0  0  0  0  0  0  0  0 31  0  0
    2.4747    2.9027   -3.9665 O   0  0  0  0  0  0  0  0  0 32  0  0
   -1.7085    6.1524    1.4079 C   0  0  0  0  0  0  0  0  0 33  0  0
   -1.9366    6.1653   -0.9639 O   0  0  0  0  0  0  0  0  0 34  0  0
   -1.4931    6.2165    3.8948 C   0  0  0  0  0  0  0  0  0 35  0  0
    2.3819   -1.6797   -5.2515 C   0  0  0  0  0  0  0  0  0 36  0  0
    2.6427    0.9964   -6.0180 C   0  0  0  0  0  0  0  0  0 37  0  0
    2.6318   -1.3454   -6.5801 C   0  0  0  0  0  0  0  0  0 38  0  0
    2.2552   -2.9800   -4.8871 O   0  0  0  0  0  0  0  0  0 39  0  0
    2.7657   -0.0257   -6.9552 C   0  0  0  0  0  0  0  0  0 40  0  0
    2.7801    2.2912   -6.4010 O   0  0  0  0  0  0  0  0  0 41  0  0
    2.7585   -2.4340   -7.6144 C   0  0  0  0  0  0  0  0  0 42  0  0
   -0.1910   -0.4394    0.9814 H   0  0  0  0  0  0  0  0  0 43  0  0
    1.6587    2.7761    0.7414 H   0  0  0  0  0  0  0  0  0 44  0  0
    1.7444   -1.3525   -0.3948 H   0  0  0  0  0  0  0  0  0 45  0  0
   -1.9184   -0.2314   -1.0237 H   0  0  0  0  0  0  0  0  0 46  0  0
    2.3622    0.4568    1.2691 H   0  0  0  0  0  0  0  0  0 47  0  0
   -0.4391   -0.5149   -3.2975 H   0  0  0  0  0  0  0  0  0 48  0  0
   -1.4111   -2.3016   -1.8586 H   0  0  0  0  0  0  0  0  0 49  0  0
    4.0297    1.5697    0.0782 H   0  0  0  0  0  0  0  0  0 50  0  0
    2.4243    4.2951   -1.0718 H   0  0  0  0  0  0  0  0  0 51  0  0
   -1.6684    1.5142   -4.1588 H   0  0  0  0  0  0  0  0  0 52  0  0
    0.1257    3.5635    3.8697 H   0  0  0  0  0  0  0  0  0 53  0  0
   -1.9647    7.2010    1.4403 H   0  0  0  0  0  0  0  0  0 54  0  0
   -2.8880    6.0821   -1.1154 H   0  0  0  0  0  0  0  0  0 55  0  0
   -0.5148    6.6416    4.1190 H   0  0  0  0  0  0  0  0  0 56  0  0
   -2.2307    7.0164    3.8300 H   0  0  0  0  0  0  0  0  0 57  0  0
   -1.7779    5.5229    4.6860 H   0  0  0  0  0  0  0  0  0 58  0  0
    1.3185   -3.2043   -4.9727 H   0  0  0  0  0  0  0  0  0 59  0  0
    2.9669    0.2180   -7.9880 H   0  0  0  0  0  0  0  0  0 60  0  0
    3.7172    2.5116   -6.3098 H   0  0  0  0  0  0  0  0  0 61  0  0
    1.7781   -2.6456   -8.0412 H   0  0  0  0  0  0  0  0  0 62  0  0
    3.4357   -2.1080   -8.4039 H   0  0  0  0  0  0  0  0  0 63  0  0
    3.1534   -3.3357   -7.1464 H   0  0  0  0  0  0  0  0  0 64  0  0
  1  2  1  0  0  0  0
  1  3  1  0  0  0  0
  1  4  1  0  0  0  0
  1  5  1  0  0  0  0
  2  6  1  0  0  0  0
  2  7  1  0  0  0  0
  2 43  1  0  0  0  0
  3  8  1  0  0  0  0
  3  9  1  0  0  0  0
  3 44  1  0  0  0  0
  4 10  2  0  0  0  0
  4 11  1  0  0  0  0
  5 12  1  0  0  0  0
  5 13  2  0  0  0  0
  6 14  1  0  0  0  0
  6  8  1  0  0  0  0
  6 45  1  0  0  0  0
  7 15  1  0  0  0  0
  7 16  1  0  0  0  0
  7 46  1  0  0  0  0
  8 17  1  0  0  0  0
  8 47  1  0  0  0  0
  9 18  2  0  0  0  0
  9 19  1  0  0  0  0
 10 20  1  0  0  0  0
 10 15  1  0  0  0  0
 11 21  1  0  0  0  0
 11 22  2  0  0  0  0
 12 23  1  0  0  0  0
 12 21  2  0  0  0  0
 14 24  1  0  0  0  0
 14 15  1  0  0  0  0
 14 18  1  0  0  0  0
 15 48  1  0  0  0  0
 16 49  1  0  0  0  0
 17 50  1  0  0  0  0
 18 25  1  0  0  0  0
 19 51  1  0  0  0  0
 20 52  1  0  0  0  0
 21 26  1  0  0  0  0
 23 27  2  0  0  0  0
 23 28  1  0  0  0  0
 24 29  1  0  0  0  0
 24 30  2  0  0  0  0
 25 31  1  0  0  0  0
 25 32  2  0  0  0  0
 26 33  2  0  0  0  0
 26 34  1  0  0  0  0
 27 35  1  0  0  0  0
 27 33  1  0  0  0  0
 28 53  1  0  0  0  0
 29 36  1  0  0  0  0
 29 31  2  0  0  0  0
 31 37  1  0  0  0  0
 33 54  1  0  0  0  0
 34 55  1  0  0  0  0
 35 56  1  0  0  0  0
 35 57  1  0  0  0  0
 35 58  1  0  0  0  0
 36 38  2  0  0  0  0
 36 39  1  0  0  0  0
 37 40  2  0  0  0  0
 37 41  1  0  0  0  0
 38 42  1  0  0  0  0
 38 40  1  0  0  0  0
 39 59  1  0  0  0  0
 40 60  1  0  0  0  0
 41 61  1  0  0  0  0
 42 62  1  0  0  0  0
 42 63  1  0  0  0  0
 42 64  1  0  0  0  0
M  END
>  <Substance ID> (380)
380

>  <Mouse_Female_Canc> (380)
3

>  <SAL> (380)
1

>  <Rat_Male_Canc> (380)
ND

>  <TD50_Rat> (380)
ND

>  <TD50_Mouse> (380)
18.6

>  <Rat_Female_Canc> (380)
ND

>  <Canc> (380)
3

>  <MolWeight> (380)
574.50

>  <Mouse_Male_Canc> (380)
3

>  <Mouse_Male_NTP> (380)
ND

>  <ChemName> (380)
Luteoskyrin

>  <Rat_Male_NTP> (380)
ND

>  <Reference> (380)
CPDB

>  <Formula> (380)
C30H22O12

>  <SMILES> (380)
O=C4c1c(O)c(cc(O)c1C(=O)\C5=C(/O)C7C28C(/C(=O)c3c(C2=O)c(O)c(cc3O)C)=C(/O)C6C(O)C8C(C456)C7O)C

>  <Rat_Female_NTP> (380)
ND

>  <CAS> (380)
21884-44-6

>  <Mouse_Female_NTP> (380)
ND

>  <Synonyms> (380)
8,8'-Dihydroxyrugulosin; (-)-Luteoskyrin.

$$$$
381


 30 29  0  0  0  0  0  0  0  0999 V2000
   36.1246  -67.0356   -0.0062 O   0  0  0  0  0  0  0  0  0  0  0  0
   37.3254  -66.3792    0.4039 C   0  0  0  0  0  0  0  0  0  0  0  0
   38.5389  -67.1537   -0.1345 C   0  0  0  0  0  0  0  0  0  0  0  0
   39.8290  -66.4332    0.2858 C   0  0  0  0  0  0  0  0  0  0  0  0
   41.0402  -67.1824   -0.2903 C   0  0  0  0  0  0  0  0  0  0  0  0
   42.2650  -66.4548    0.0549 N   0  0  0  0  0  0  0  0  0  0  0  0
   43.5444  -67.1253   -0.3316 C   0  0  0  0  0  0  0  0  0  0  0  0
   44.7869  -66.5030    0.3521 C   0  0  0  0  0  0  0  0  0  0  0  0
   46.0550  -67.2198   -0.1436 C   0  0  0  0  0  0  0  0  0  0  0  0
   47.2944  -66.5776    0.5052 C   0  0  0  0  0  0  0  0  0  0  0  0
   42.1491  -65.1025   -0.2535 N   0  0  0  0  0  0  0  0  0  0  0  0
   43.0715  -64.4038   -0.4439 O   0  0  0  0  0  0  0  0  0  0  0  0
   35.3336  -66.5333    0.3431 H   0  0  0  0  0  0  0  0  0  0  0  0
   37.3368  -65.4473    0.0413 H   0  0  0  0  0  0  0  0  0  0  0  0
   37.3650  -66.3493    1.4026 H   0  0  0  0  0  0  0  0  0  0  0  0
   38.5368  -68.0806    0.2410 H   0  0  0  0  0  0  0  0  0  0  0  0
   38.4910  -67.1977   -1.1323 H   0  0  0  0  0  0  0  0  0  0  0  0
   39.8178  -65.4968   -0.0651 H   0  0  0  0  0  0  0  0  0  0  0  0
   39.8913  -66.4150    1.2837 H   0  0  0  0  0  0  0  0  0  0  0  0
   41.0784  -68.1038    0.0964 H   0  0  0  0  0  0  0  0  0  0  0  0
   40.9551  -67.2410   -1.2849 H   0  0  0  0  0  0  0  0  0  0  0  0
   43.4887  -68.0898   -0.0733 H   0  0  0  0  0  0  0  0  0  0  0  0
   43.6558  -67.0510   -1.3226 H   0  0  0  0  0  0  0  0  0  0  0  0
   44.8420  -65.5312    0.1231 H   0  0  0  0  0  0  0  0  0  0  0  0
   44.7101  -66.6086    1.3436 H   0  0  0  0  0  0  0  0  0  0  0  0
   46.0109  -68.1868    0.1074 H   0  0  0  0  0  0  0  0  0  0  0  0
   46.1181  -67.1357   -1.1381 H   0  0  0  0  0  0  0  0  0  0  0  0
   48.1188  -67.0432    0.1832 H   0  0  0  0  0  0  0  0  0  0  0  0
   47.2318  -66.6613    1.4997 H   0  0  0  0  0  0  0  0  0  0  0  0
   47.3390  -65.6105    0.2546 H   0  0  0  0  0  0  0  0  0  0  0  0
  1  2  1  0  0  0  0
  2  3  1  0  0  0  0
  3  4  1  0  0  0  0
  4  5  1  0  0  0  0
  5  6  1  0  0  0  0
  6  7  1  0  0  0  0
  7  8  1  0  0  0  0
  8  9  1  0  0  0  0
  9 10  1  0  0  0  0
  6 11  1  0  0  0  0
 11 12  2  0  0  0  0
  1 13  1  0  0  0  0
  2 14  1  0  0  0  0
  2 15  1  0  0  0  0
  3 16  1  0  0  0  0
  3 17  1  0  0  0  0
  4 18  1  0  0  0  0
  4 19  1  0  0  0  0
  5 20  1  0  0  0  0
  5 21  1  0  0  0  0
  7 22  1  0  0  0  0
  7 23  1  0  0  0  0
  8 24  1  0  0  0  0
  8 25  1  0  0  0  0
  9 26  1  0  0  0  0
  9 27  1  0  0  0  0
 10 28  1  0  0  0  0
 10 29  1  0  0  0  0
 10 30  1  0  0  0  0
M  END
>  <Substance ID> (381)
381

>  <Mouse_Female_Canc> (381)
ND

>  <SAL> (381)
3

>  <Rat_Male_Canc> (381)
3

>  <TD50_Rat> (381)
0.457

>  <TD50_Mouse> (381)
ND

>  <Rat_Female_Canc> (381)
3

>  <Canc> (381)
3

>  <MolWeight> (381)
174.24

>  <Mouse_Male_Canc> (381)
ND

>  <Mouse_Male_NTP> (381)
ND

>  <ChemName> (381)
N-butyl-N-(4-hydroxybutyl)nitrosamine

>  <Rat_Male_NTP> (381)
ND

>  <Reference> (381)
CPDB

>  <Formula> (381)
C8H18N2O2

>  <SMILES> (381)
N(CCCCO)(CCCC)N=O

>  <Rat_Female_NTP> (381)
ND

>  <CAS> (381)
3817-11-6

>  <Mouse_Female_NTP> (381)
ND

>  <Synonyms> (381)
4-butylnitrosamino-1-butanol; 4-hydroxybutylbutylnitrosamine; 4-hydroxy-N-nitrosodibutylamine; 4-(n-butylnitrosamino)-1-butanol; BBN; butanol (4)-butyl-nitrosamine; Butyl-butanol-nitrosamine; n-butyl-(4-hydroxybutyl)nitrosamine.

$$$$
382


 24 25  0  0  0  0  0  0  0  0999 V2000
   36.4628  -76.5212    0.0004 C   0  0  0  0  0  0  0  0  0  0  0  0
   35.2083  -76.0570   -0.0010 C   0  0  0  0  0  0  0  0  0  0  0  0
   34.1197  -77.4211    0.0001 S   0  0  0  0  0  0  0  0  0  0  0  0
   35.4566  -78.5400    0.0007 C   0  0  0  0  0  0  0  0  0  0  0  0
   36.5847  -77.9476    0.0015 N   0  0  0  0  0  0  0  0  0  0  0  0
   37.6398  -75.6579   -0.0001 C   0  0  0  0  0  0  0  0  0  0  0  0
   38.8479  -76.2162   -0.0004 C   0  0  0  0  0  0  0  0  0  0  0  0
   39.9294  -74.0558    0.0003 C   0  0  0  0  0  0  0  0  0  0  0  0
   38.5979  -73.4330   -0.0015 C   0  0  0  0  0  0  0  0  0  0  0  0
   40.0430  -75.3812    0.0003 C   0  0  0  0  0  0  0  0  0  0  0  0
   37.5059  -74.1963   -0.0004 C   0  0  0  0  0  0  0  0  0  0  0  0
   35.3164  -79.9284   -0.0007 N   0  0  0  0  0  0  0  0  0  0  0  0
   36.4002  -80.7015   -0.0007 N   0  0  0  0  0  0  0  0  0  0  0  0
   41.0799  -73.2677    0.0006 N   0  3  0  0  0  0  0  0  0  0  0  0
   42.2718  -73.8459   -0.0000 O   0  5  0  0  0  0  0  0  0  0  0  0
   40.9931  -72.0960    0.0002 O   0  0  0  0  0  0  0  0  0  0  0  0
   34.9402  -75.0936   -0.0024 H   0  0  0  0  0  0  0  0  0  0  0  0
   38.9362  -77.2123   -0.0011 H   0  0  0  0  0  0  0  0  0  0  0  0
   38.5117  -72.4367   -0.0035 H   0  0  0  0  0  0  0  0  0  0  0  0
   40.9487  -75.8051    0.0007 H   0  0  0  0  0  0  0  0  0  0  0  0
   36.5989  -73.7752    0.0002 H   0  0  0  0  0  0  0  0  0  0  0  0
   34.4055  -80.3409   -0.0018 H   0  0  0  0  0  0  0  0  0  0  0  0
   36.3043  -81.6969   -0.0017 H   0  0  0  0  0  0  0  0  0  0  0  0
   37.3102  -80.2869    0.0005 H   0  0  0  0  0  0  0  0  0  0  0  0
  1  2  2  0  0  0  0
  2  3  1  0  0  0  0
  3  4  1  0  0  0  0
  4  5  2  0  0  0  0
  5  1  1  0  0  0  0
  6  7  2  0  0  0  0
  8  9  1  0  0  0  0
  6 11  1  0  0  0  0
  7 10  1  0  0  0  0
 10  8  2  0  0  0  0
  9 11  2  0  0  0  0
  6  1  1  0  0  0  0
  4 12  1  0  0  0  0
 12 13  1  0  0  0  0
 14 15  1  0  0  0  0
 14 16  2  0  0  0  0
  8 14  1  0  0  0  0
  2 17  1  0  0  0  0
  7 18  1  0  0  0  0
  9 19  1  0  0  0  0
 10 20  1  0  0  0  0
 11 21  1  0  0  0  0
 12 22  1  0  0  0  0
 13 23  1  0  0  0  0
 13 24  1  0  0  0  0
M  END
>  <Substance ID> (382)
382

>  <Mouse_Female_Canc> (382)
3

>  <SAL> (382)
3

>  <Rat_Male_Canc> (382)
ND

>  <TD50_Rat> (382)
3.21

>  <TD50_Mouse> (382)
10.6

>  <Rat_Female_Canc> (382)
3

>  <Canc> (382)
3

>  <MolWeight> (382)
236.25

>  <Mouse_Male_Canc> (382)
ND

>  <Mouse_Male_NTP> (382)
ND

>  <ChemName> (382)
2-Hydrazino-4-(p-nitrophenyl)thiazole

>  <Rat_Male_NTP> (382)
ND

>  <Reference> (382)
CPDB

>  <Formula> (382)
C9H8N4O2S

>  <SMILES> (382)
[O-][N+](=O)c1ccc(cc1)c2nc(sc2)NN

>  <Rat_Female_NTP> (382)
ND

>  <CAS> (382)
26049-70-7

>  <Mouse_Female_NTP> (382)
ND

>  <Synonyms> (382)
-

$$$$
383


 18 18  0  0  0  0  0  0  0  0999 V2000
   35.0323  -89.0402   -0.2186 C   0  0  0  0  0  0  0  0  0  0  0  0
   35.0323  -90.5170    0.2184 C   0  0  0  0  0  0  0  0  0  0  0  0
   36.2799  -91.1594   -0.2266 N   0  0  0  0  0  0  0  0  0  0  0  0
   37.5284  -90.5161    0.2192 C   0  0  0  0  0  0  0  0  0  0  0  0
   37.5283  -89.0405   -0.2179 C   0  0  0  0  0  0  0  0  0  0  0  0
   36.2794  -88.3975    0.2271 N   0  0  0  0  0  0  0  0  0  0  0  0
   36.2794  -92.5101   -0.0434 N   0  0  0  0  0  0  0  0  0  0  0  0
   36.2787  -87.0468    0.0436 N   0  0  0  0  0  0  0  0  0  0  0  0
   37.2967  -86.4645   -0.0344 O   0  0  0  0  0  0  0  0  0  0  0  0
   37.2975  -93.0922    0.0351 O   0  0  0  0  0  0  0  0  0  0  0  0
   34.9677  -88.9874   -1.2151 H   0  0  0  0  0  0  0  0  0  0  0  0
   34.2503  -88.5711    0.1919 H   0  0  0  0  0  0  0  0  0  0  0  0
   34.9672  -90.5698    1.2149 H   0  0  0  0  0  0  0  0  0  0  0  0
   34.2507  -90.9863   -0.1925 H   0  0  0  0  0  0  0  0  0  0  0  0
   37.5931  -90.5686    1.2157 H   0  0  0  0  0  0  0  0  0  0  0  0
   38.3102  -90.9853   -0.1914 H   0  0  0  0  0  0  0  0  0  0  0  0
   38.3098  -88.5711    0.1931 H   0  0  0  0  0  0  0  0  0  0  0  0
   37.5937  -88.9880   -1.2144 H   0  0  0  0  0  0  0  0  0  0  0  0
  1  2  1  0  0  0  0
  1  6  1  0  0  0  0
  2  3  1  0  0  0  0
  3  4  1  0  0  0  0
  4  5  1  0  0  0  0
  5  6  1  0  0  0  0
  3  7  1  0  0  0  0
  6  8  1  0  0  0  0
  8  9  2  0  0  0  0
  7 10  2  0  0  0  0
  1 11  1  0  0  0  0
  1 12  1  0  0  0  0
  2 13  1  0  0  0  0
  2 14  1  0  0  0  0
  4 15  1  0  0  0  0
  4 16  1  0  0  0  0
  5 17  1  0  0  0  0
  5 18  1  0  0  0  0
M  END
>  <Substance ID> (383)
383

>  <Mouse_Female_Canc> (383)
3

>  <SAL> (383)
3

>  <Rat_Male_Canc> (383)
ND

>  <TD50_Rat> (383)
ND

>  <TD50_Mouse> (383)
3.6

>  <Rat_Female_Canc> (383)
ND

>  <Canc> (383)
3

>  <MolWeight> (383)
144.13

>  <Mouse_Male_Canc> (383)
3

>  <Mouse_Male_NTP> (383)
ND

>  <ChemName> (383)
Dinitrosopiperazine

>  <Rat_Male_NTP> (383)
ND

>  <Reference> (383)
CPDB

>  <Formula> (383)
C4H8N4O2

>  <SMILES> (383)
O=NN1CCN(N=O)CC1

>  <Rat_Female_NTP> (383)
ND

>  <CAS> (383)
140-79-4

>  <Mouse_Female_NTP> (383)
ND

>  <Synonyms> (383)
N,N'-Dinitrosopiperazine; Piperazine, 1,4-dinitroso-.

$$$$
384


 24 23  0  0  0  0  0  0  0  0999 V2000
    2.6245   -5.0094   -0.0003 C   0  0  0  0  0  0  0  0  0  0  0  0
    3.9073   -4.1549    0.0000 C   0  0  0  0  0  0  0  0  0  0  0  0
    5.1363   -5.0823   -0.0002 C   0  0  0  0  0  0  0  0  0  0  0  0
    6.4327   -4.2466   -0.0002 C   0  0  0  0  0  0  0  0  0  0  0  0
    7.6396   -5.2047   -0.0021 C   0  0  0  0  0  0  0  0  0  0  0  0
    8.9023   -4.4470   -0.0012 N   0  0  0  0  0  0  0  0  0  0  0  0
   10.1513   -5.1611    0.0012 C   0  0  0  0  0  0  0  0  0  0  0  0
   11.3990   -4.4567    0.0023 N   0  0  0  0  0  0  0  0  0  0  0  0
    8.8781   -3.0755   -0.0021 N   0  0  0  0  0  0  0  0  0  0  0  0
    9.8767   -2.4543   -0.0010 O   0  0  0  0  0  0  0  0  0  0  0  0
   10.1478   -6.3975    0.0021 O   0  0  0  0  0  0  0  0  0  0  0  0
    1.8241   -4.4099   -0.0002 H   0  0  0  0  0  0  0  0  0  0  0  0
    2.6079   -5.5869    0.8159 H   0  0  0  0  0  0  0  0  0  0  0  0
    2.6080   -5.5864   -0.8169 H   0  0  0  0  0  0  0  0  0  0  0  0
    3.9244   -3.5777   -0.8164 H   0  0  0  0  0  0  0  0  0  0  0  0
    3.9243   -3.5783    0.8169 H   0  0  0  0  0  0  0  0  0  0  0  0
    5.1151   -5.6592    0.8164 H   0  0  0  0  0  0  0  0  0  0  0  0
    5.1150   -5.6590   -0.8169 H   0  0  0  0  0  0  0  0  0  0  0  0
    6.4605   -3.6693   -0.8162 H   0  0  0  0  0  0  0  0  0  0  0  0
    6.4616   -3.6711    0.8171 H   0  0  0  0  0  0  0  0  0  0  0  0
    7.6022   -5.7819    0.8136 H   0  0  0  0  0  0  0  0  0  0  0  0
    7.6018   -5.7792   -0.8197 H   0  0  0  0  0  0  0  0  0  0  0  0
   12.2602   -4.9651    0.0040 H   0  0  0  0  0  0  0  0  0  0  0  0
   11.4087   -3.4568    0.0014 H   0  0  0  0  0  0  0  0  0  0  0  0
  1  2  1  0  0  0  0
  2  3  1  0  0  0  0
  3  4  1  0  0  0  0
  4  5  1  0  0  0  0
  5  6  1  0  0  0  0
  6  7  1  0  0  0  0
  7  8  1  0  0  0  0
  6  9  1  0  0  0  0
  9 10  2  0  0  0  0
  7 11  2  0  0  0  0
  1 12  1  0  0  0  0
  1 13  1  0  0  0  0
  1 14  1  0  0  0  0
  2 15  1  0  0  0  0
  2 16  1  0  0  0  0
  3 17  1  0  0  0  0
  3 18  1  0  0  0  0
  4 19  1  0  0  0  0
  4 20  1  0  0  0  0
  5 21  1  0  0  0  0
  5 22  1  0  0  0  0
  8 23  1  0  0  0  0
  8 24  1  0  0  0  0
M  END
>  <Substance ID> (384)
384

>  <Mouse_Female_Canc> (384)
ND

>  <SAL> (384)
ND

>  <Rat_Male_Canc> (384)
3

>  <TD50_Rat> (384)
0.55

>  <TD50_Mouse> (384)
ND

>  <Rat_Female_Canc> (384)
3

>  <Canc> (384)
3

>  <MolWeight> (384)
159.19

>  <Mouse_Male_Canc> (384)
ND

>  <Mouse_Male_NTP> (384)
ND

>  <ChemName> (384)
1-Amyl-1-nitrosourea

>  <Rat_Male_NTP> (384)
ND

>  <Reference> (384)
CPDB

>  <Formula> (384)
C6H13N3O2

>  <SMILES> (384)
O=C(N(CCCCC)N=O)N

>  <Rat_Female_NTP> (384)
ND

>  <CAS> (384)
10589-74-9

>  <Mouse_Female_NTP> (384)
ND

>  <Synonyms> (384)
-

$$$$
385


 23 23  0  0  0  0  0  0  0  0999 V2000
    3.1587  -18.2904   -0.0227 C   0  0  0  0  0  0  0  0  0  0  0  0
    4.0292  -19.3981   -0.0440 N   0  0  0  0  0  0  0  0  0  0  0  0
    5.3084  -18.8854   -0.0213 C   0  0  0  0  0  0  0  0  0  0  0  0
    5.2052  -17.5526    0.0110 C   0  0  0  0  0  0  0  0  0  0  0  0
    3.8472  -17.2144    0.0095 N   0  0  0  0  0  0  0  0  0  0  0  0
    6.2758  -16.5217    0.0452 C   0  0  0  0  0  0  0  0  0  0  0  0
    6.4746  -19.7005   -0.0308 N   0  0  0  0  0  0  0  0  0  0  0  0
    5.9495  -15.3287    0.0777 O   0  0  0  0  0  0  0  0  0  0  0  0
    7.6262  -16.8465    0.0410 N   0  0  0  0  0  0  0  0  0  0  0  0
    7.5881  -19.2356   -0.0127 N   0  0  0  0  0  0  0  0  0  0  0  0
    8.6645  -20.0184   -0.0172 N   0  0  0  0  0  0  0  0  0  0  0  0
    9.9758  -19.4289   -0.0059 C   0  0  0  0  0  0  0  0  0  0  0  0
    8.5242  -21.4479   -0.0316 C   0  0  0  0  0  0  0  0  0  0  0  0
    2.1599  -18.3387   -0.0314 H   0  0  0  0  0  0  0  0  0  0  0  0
    3.7705  -20.3637   -0.0704 H   0  0  0  0  0  0  0  0  0  0  0  0
    8.3148  -16.1217    0.0647 H   0  0  0  0  0  0  0  0  0  0  0  0
    7.9099  -17.8050    0.0143 H   0  0  0  0  0  0  0  0  0  0  0  0
   10.6668  -20.1517   -0.0112 H   0  0  0  0  0  0  0  0  0  0  0  0
   10.0840  -18.8711    0.8170 H   0  0  0  0  0  0  0  0  0  0  0  0
   10.0900  -18.8534   -0.8157 H   0  0  0  0  0  0  0  0  0  0  0  0
    9.4297  -21.8721   -0.0330 H   0  0  0  0  0  0  0  0  0  0  0  0
    8.0250  -21.7261   -0.8522 H   0  0  0  0  0  0  0  0  0  0  0  0
    8.0202  -21.7420    0.7806 H   0  0  0  0  0  0  0  0  0  0  0  0
  1  2  1  0  0  0  0
  3  4  2  0  0  0  0
  4  5  1  0  0  0  0
  5  1  2  0  0  0  0
  2  3  1  0  0  0  0
  4  6  1  0  0  0  0
  3  7  1  0  0  0  0
  6  8  2  0  0  0  0
  6  9  1  0  0  0  0
  7 10  2  0  0  0  0
 10 11  1  0  0  0  0
 11 12  1  0  0  0  0
 11 13  1  0  0  0  0
  1 14  1  0  0  0  0
  2 15  1  0  0  0  0
  9 16  1  0  0  0  0
  9 17  1  0  0  0  0
 12 18  1  0  0  0  0
 12 19  1  0  0  0  0
 12 20  1  0  0  0  0
 13 21  1  0  0  0  0
 13 22  1  0  0  0  0
 13 23  1  0  0  0  0
M  END
>  <Substance ID> (385)
385

>  <Mouse_Female_Canc> (385)
3

>  <SAL> (385)
3

>  <Rat_Male_Canc> (385)
ND

>  <TD50_Rat> (385)
0.71

>  <TD50_Mouse> (385)
0.966

>  <Rat_Female_Canc> (385)
3

>  <Canc> (385)
3

>  <MolWeight> (385)
182.18

>  <Mouse_Male_Canc> (385)
3

>  <Mouse_Male_NTP> (385)
ND

>  <ChemName> (385)
Dacarbazine

>  <Rat_Male_NTP> (385)
ND

>  <Reference> (385)
CPDB

>  <Formula> (385)
C6H10N6O

>  <SMILES> (385)
O=C(c1ncnc1/N=N/N(C)C)N

>  <Rat_Female_NTP> (385)
ND

>  <CAS> (385)
4342-03-4

>  <Mouse_Female_NTP> (385)
ND

>  <Synonyms> (385)
1H-Imidazole-4-carboxamide, 5- (3,4-dimethyl-1-triazenyl)-; 4-(3,3-Dimethyltriazeno)imidazole-5-carboxamide; 4(5)-(3,3-Dimethyl-1-triazeno)imidazole-5(4)-carboxamide; 4-(Dimethyltriazeno)imidazole-5-carboxamide; 4-(or 5)-(3,3-Dimethyl-1-triazeno)imidazole-5(or 4)-carboxamide; 5-(3,3-dimethyl-1-triazenyl)-1H-imidazole-4-carboxamide; 5-(3,3-Dimethyltriazeno)-imidazole-4-carbamide; 5-(3,3-Dimethyltriazeno)imidazole-4-carboxamide; 5-(Dimethyltriazeno)-4-imidazolecarboxamide; 5-(Dimethyltriazeno)imidazole-4-carboxamide; 5-(Dimethyltriazeno)imidazole-4-carboximide; 5(or 4)-(dimethyltriazeno)imidazole-4(or 5)-carboxamide; DIC; Di-methyl-triazenoimidazolecarboxamide; Dacatic; Deticene; DTIC; DTIC-Dome; DTIE; ICDMT; ICDT; Imidazole-4(or 5)-carboxamide, 5(or 4)-(3,3-dimethyl-1-triazeno)-.

$$$$
386


 17 17  0  0  0  0  0  0  0  0999 V2000
    3.9005  -29.3116    0.0236 C   0  0  0  0  0  0  0  0  0  0  0  0
    3.4966  -30.5742   -0.1510 C   0  0  0  0  0  0  0  0  0  0  0  0
    4.9031  -31.6034   -0.1917 S   0  0  0  0  0  0  0  0  0  0  0  0
    5.9616  -30.2363    0.0318 C   0  0  0  0  0  0  0  0  0  0  0  0
    5.3221  -29.1371    0.1272 N   0  0  0  0  0  0  0  0  0  0  0  0
    2.9405  -28.1598    0.1028 C   0  0  0  0  0  0  0  0  0  0  0  0
    7.3500  -30.3262    0.0933 N   0  0  0  0  0  0  0  0  0  0  0  0
    7.9505  -31.5009   -0.0298 N   0  0  0  0  0  0  0  0  0  0  0  0
    9.3414  -31.5612   -0.0461 C   0  0  0  0  0  0  0  0  0  0  0  0
   10.0068  -30.5225    0.0421 O   0  0  0  0  0  0  0  0  0  0  0  0
    2.5480  -30.8770   -0.2428 H   0  0  0  0  0  0  0  0  0  0  0  0
    3.4497  -27.3094    0.2347 H   0  0  0  0  0  0  0  0  0  0  0  0
    2.3170  -28.2973    0.8724 H   0  0  0  0  0  0  0  0  0  0  0  0
    2.4147  -28.1047   -0.7461 H   0  0  0  0  0  0  0  0  0  0  0  0
    7.8964  -29.5001    0.2311 H   0  0  0  0  0  0  0  0  0  0  0  0
    7.4090  -32.3377   -0.1104 H   0  0  0  0  0  0  0  0  0  0  0  0
    9.8025  -32.4447   -0.1292 H   0  0  0  0  0  0  0  0  0  0  0  0
  1  2  2  0  0  0  0
  2  3  1  0  0  0  0
  3  4  1  0  0  0  0
  4  5  2  0  0  0  0
  1  5  1  0  0  0  0
  1  6  1  0  0  0  0
  4  7  1  0  0  0  0
  7  8  1  0  0  0  0
  8  9  1  0  0  0  0
  9 10  2  0  0  0  0
  2 11  1  0  0  0  0
  6 12  1  0  0  0  0
  6 13  1  0  0  0  0
  6 14  1  0  0  0  0
  7 15  1  0  0  0  0
  8 16  1  0  0  0  0
  9 17  1  0  0  0  0
M  END
>  <Substance ID> (386)
386

>  <Mouse_Female_Canc> (386)
ND

>  <SAL> (386)
ND

>  <Rat_Male_Canc> (386)
ND

>  <TD50_Rat> (386)
14.4

>  <TD50_Mouse> (386)
ND

>  <Rat_Female_Canc> (386)
3

>  <Canc> (386)
3

>  <MolWeight> (386)
157.19

>  <Mouse_Male_Canc> (386)
ND

>  <Mouse_Male_NTP> (386)
ND

>  <ChemName> (386)
Formic acid 2-(4-methyl-2-thiazolyl)hydrazide

>  <Rat_Male_NTP> (386)
ND

>  <Reference> (386)
CPDB

>  <Formula> (386)
C5H7N3OS

>  <SMILES> (386)
C1(C)=CSC(=N1)NNC=O

>  <Rat_Female_NTP> (386)
ND

>  <CAS> (386)
32852-21-4

>  <Mouse_Female_NTP> (386)
ND

>  <Synonyms> (386)
-

$$$$
387


 21 20  0  0  0  0  0  0  0  0999 V2000
    2.0490  -37.2577    0.1021 C   0  0  0  0  0  0  0  0  0  0  0  0
    3.4671  -37.8524    0.0250 C   0  0  0  0  0  0  0  0  0  0  0  0
    4.5021  -36.7152    0.0814 C   0  0  0  0  0  0  0  0  0  0  0  0
    5.9200  -37.3054   -0.0028 C   0  0  0  0  0  0  0  0  0  0  0  0
    6.9496  -36.1629    0.0406 C   0  0  0  0  0  0  0  0  0  0  0  0
    8.3361  -36.7302   -0.0525 C   0  0  0  0  0  0  0  0  0  0  0  0
    9.3134  -35.9750   -0.0507 O   0  0  0  0  0  0  0  0  0  0  0  0
    8.5207  -38.1119   -0.1432 N   0  0  0  0  0  0  0  0  0  0  0  0
    1.3752  -37.9956    0.0655 H   0  0  0  0  0  0  0  0  0  0  0  0
    1.9050  -36.6369   -0.6686 H   0  0  0  0  0  0  0  0  0  0  0  0
    1.9446  -36.7537    0.9595 H   0  0  0  0  0  0  0  0  0  0  0  0
    3.6109  -38.4727    0.7960 H   0  0  0  0  0  0  0  0  0  0  0  0
    3.5713  -38.3560   -0.8326 H   0  0  0  0  0  0  0  0  0  0  0  0
    4.3546  -36.0924   -0.6869 H   0  0  0  0  0  0  0  0  0  0  0  0
    4.4002  -36.2147    0.9411 H   0  0  0  0  0  0  0  0  0  0  0  0
    6.0718  -37.9213    0.7704 H   0  0  0  0  0  0  0  0  0  0  0  0
    6.0202  -37.8130   -0.8585 H   0  0  0  0  0  0  0  0  0  0  0  0
    6.7914  -35.5433   -0.7282 H   0  0  0  0  0  0  0  0  0  0  0  0
    6.8528  -35.6603    0.8997 H   0  0  0  0  0  0  0  0  0  0  0  0
    9.4443  -38.4899   -0.2052 H   0  0  0  0  0  0  0  0  0  0  0  0
    7.7291  -38.7229   -0.1461 H   0  0  0  0  0  0  0  0  0  0  0  0
  1  2  1  0  0  0  0
  2  3  1  0  0  0  0
  3  4  1  0  0  0  0
  4  5  1  0  0  0  0
  5  6  1  0  0  0  0
  6  7  2  0  0  0  0
  6  8  1  0  0  0  0
  1  9  1  0  0  0  0
  1 10  1  0  0  0  0
  1 11  1  0  0  0  0
  2 12  1  0  0  0  0
  2 13  1  0  0  0  0
  3 14  1  0  0  0  0
  3 15  1  0  0  0  0
  4 16  1  0  0  0  0
  4 17  1  0  0  0  0
  5 18  1  0  0  0  0
  5 19  1  0  0  0  0
  8 20  1  0  0  0  0
  8 21  1  0  0  0  0
M  END
>  <Substance ID> (387)
387

>  <Mouse_Female_Canc> (387)
1

>  <SAL> (387)
1

>  <Rat_Male_Canc> (387)
1

>  <TD50_Rat> (387)
NP

>  <TD50_Mouse> (387)
1950

>  <Rat_Female_Canc> (387)
1

>  <Canc> (387)
3

>  <MolWeight> (387)
115.17

>  <Mouse_Male_Canc> (387)
3

>  <Mouse_Male_NTP> (387)
ND

>  <ChemName> (387)
Hexanamide

>  <Rat_Male_NTP> (387)
ND

>  <Reference> (387)
CPDB

>  <Formula> (387)
C6H13NO

>  <SMILES> (387)
NC(=O)CCCCC

>  <Rat_Female_NTP> (387)
ND

>  <CAS> (387)
628-02-4

>  <Mouse_Female_NTP> (387)
ND

>  <Synonyms> (387)
hexanoic acid, amide.

$$$$
388


  4  3  0  0  0  0  0  0  0  0999 V2000
    2.4340  -43.7419   -0.0001 C   0  0  0  0  0  0  0  0  0  0  0  0
    3.6702  -43.7421    0.0003 O   0  0  0  0  0  0  0  0  0  0  0  0
    1.9341  -42.8758   -0.0003 H   0  0  0  0  0  0  0  0  0  0  0  0
    1.9339  -44.6078   -0.0003 H   0  0  0  0  0  0  0  0  0  0  0  0
  1  2  2  0  0  0  0
  1  3  1  0  0  0  0
  1  4  1  0  0  0  0
M  END
>  <Substance ID> (388)
388

>  <Mouse_Female_Canc> (388)
1

>  <SAL> (388)
3

>  <Rat_Male_Canc> (388)
3

>  <TD50_Rat> (388)
2.19

>  <TD50_Mouse> (388)
43.9

>  <Rat_Female_Canc> (388)
3

>  <Canc> (388)
3

>  <MolWeight> (388)
30.03

>  <Mouse_Male_Canc> (388)
3

>  <Mouse_Male_NTP> (388)
ND

>  <ChemName> (388)
Formaldehyde

>  <Rat_Male_NTP> (388)
ND

>  <Reference> (388)
CPDB

>  <Formula> (388)
CH2O

>  <SMILES> (388)
C=O

>  <Rat_Female_NTP> (388)
ND

>  <CAS> (388)
50-00-0

>  <Mouse_Female_NTP> (388)
ND

>  <Synonyms> (388)
BFV; fannoform; superlysoform; Veracur; Formaldehyde, solution, flammable; Formaldehyde, solutions (Formalin) (corrosive); Formalin; formalin 40; formalith; Formic aldehyde; Formol; FYDE; HCHO; HOCH; karsan; lysoform; Melamine-Formaldehyde Resin; Methan 21; Methanal; Methyl aldehyde; methylene glycol; Methylene oxide; Morbicid; Oxomethane; Oxomethylene; Oxymethylene.

$$$$
389


 12 11  0  0  0  0  0  0  0  0999 V2000
    1.5827  -49.8804   -0.3151 C   0  0  0  0  0  0  0  0  0  0  0  0
    2.4897  -51.0370   -0.3400 N   0  0  0  0  0  0  0  0  0  0  0  0
    3.6936  -50.7005    0.2905 N   0  0  0  0  0  0  0  0  0  0  0  0
    1.8652  -52.1655    0.3652 C   0  0  0  0  0  0  0  0  0  0  0  0
    0.7229  -50.1207   -0.7654 H   0  0  0  0  0  0  0  0  0  0  0  0
    2.0071  -49.1130   -0.7959 H   0  0  0  0  0  0  0  0  0  0  0  0
    1.4004  -49.6195    0.6329 H   0  0  0  0  0  0  0  0  0  0  0  0
    4.3105  -51.4872    0.2735 H   0  0  0  0  0  0  0  0  0  0  0  0
    3.5123  -50.4400    1.2388 H   0  0  0  0  0  0  0  0  0  0  0  0
    2.4822  -52.9523    0.3483 H   0  0  0  0  0  0  0  0  0  0  0  0
    1.0059  -52.4066   -0.0858 H   0  0  0  0  0  0  0  0  0  0  0  0
    1.6822  -51.9064    1.3136 H   0  0  0  0  0  0  0  0  0  0  0  0
  1  2  1  0  0  0  0
  2  3  1  0  0  0  0
  2  4  1  0  0  0  0
  1  5  1  0  0  0  0
  1  6  1  0  0  0  0
  1  7  1  0  0  0  0
  3  8  1  0  0  0  0
  3  9  1  0  0  0  0
  4 10  1  0  0  0  0
  4 11  1  0  0  0  0
  4 12  1  0  0  0  0
M  END
>  <Substance ID> (389)
389

>  <Mouse_Female_Canc> (389)
3

>  <SAL> (389)
3

>  <Rat_Male_Canc> (389)
1

>  <TD50_Rat> (389)
NP

>  <TD50_Mouse> (389)
3.96

>  <Rat_Female_Canc> (389)
1

>  <Canc> (389)
3

>  <MolWeight> (389)
60.10

>  <Mouse_Male_Canc> (389)
3

>  <Mouse_Male_NTP> (389)
ND

>  <ChemName> (389)
1,1-Dimethylhydrazine

>  <Rat_Male_NTP> (389)
ND

>  <Reference> (389)
CPDB

>  <Formula> (389)
C2H8N2

>  <SMILES> (389)
CN(C)N

>  <Rat_Female_NTP> (389)
ND

>  <CAS> (389)
57-14-7

>  <Mouse_Female_NTP> (389)
ND

>  <Synonyms> (389)
Asymmetric dimethylhydrazine; dimazine; Dimethylhydrazine; Dimethylhydrazine, 1,1-; Dimethyl hydrazine (asymetrical); N,N-dimethylhydrazine; UDMH; uns-dimethylhydrazine; unsym-dimethylhydrazine; unsymetrical dimethyl hydrazine; Unsymmetrical dimethylhydrazine.

$$$$
390
  

 69 68  0  0  0  0  0  0  0  0999 V2000
   12.9389  -14.0010   -0.2362 C   0  0  0  0  0  0  0  0  0  1  0  0
   14.2689  -14.0043   -0.2358 C   0  0  0  0  0  0  0  0  0  2  0  0
   14.9309  -15.1536   -0.3353 N   0  0  0  0  0  0  0  0  0  3  0  0
   16.2609  -15.1569   -0.3349 C   0  0  2  0  0  0  0  0  0  4  0  0
   16.2576  -16.4819   -0.4501 H   0  0  0  0  0  0  0  0  0  5  0  0
   17.5908  -15.1603   -0.3345 C   0  0  0  0  0  0  0  0  0  6  0  0
   18.2586  -14.0144   -0.2346 C   0  0  0  0  0  0  0  0  0  7  0  0
   19.5885  -14.0177   -0.2341 C   0  0  0  0  0  0  0  0  0  8  0  0
   17.5965  -12.8650   -0.1350 C   0  0  0  0  0  0  0  0  0  9  0  0
   16.2642  -13.8320   -0.2198 C   0  0  0  0  0  0  0  0  0 10  0  0
   17.4177  -13.1724   -0.1618 N   0  0  0  0  0  0  0  0  0 11  0  0
   17.4210  -11.8475   -0.0467 C   0  0  2  0  0  0  0  0  0 12  0  0
   18.7510  -11.8509   -0.0463 H   0  0  0  0  0  0  0  0  0 13  0  0
   17.4243  -10.5225    0.0685 C   0  0  0  0  0  0  0  0  0 14  0  0
   16.2741   -9.8571    0.1257 C   0  0  0  0  0  0  0  0  0 15  0  0
   16.2774   -8.5322    0.2408 C   0  0  0  0  0  0  0  0  0 16  0  0
   15.1204  -10.5167    0.0678 C   0  0  0  0  0  0  0  0  0 17  0  0
   16.0911  -11.8442   -0.0471 C   0  0  0  0  0  0  0  0  0 18  0  0
   15.4290  -10.6948    0.0524 N   0  0  0  0  0  0  0  0  0 19  0  0
   14.0991  -10.6915    0.0520 C   0  0  2  0  0  0  0  0  0 20  0  0
   13.4369   -9.5422    0.1516 C   0  0  0  0  0  0  0  0  0 21  0  0
   12.1069   -9.5389    0.1511 C   0  0  0  0  0  0  0  0  0 22  0  0
   11.4449   -8.3896    0.2507 C   0  0  0  0  0  0  0  0  0 23  0  0
   10.1149   -8.3862    0.2503 N   0  0  0  0  0  0  0  0  0 24  0  0
    9.4528   -7.2380    0.3497 C   0  0  0  0  0  0  0  0  0 25  0  0
   10.1206   -6.0920    0.4497 N   0  0  0  0  0  0  0  0  0 26  0  0
    8.1229   -7.2346    0.3493 N   0  3  0  0  0  0  0  0  0 27  0  0
   13.4312  -11.8375   -0.0479 C   0  0  0  0  0  0  0  0  0 28  0  0
   12.1012  -11.8341   -0.0483 O   0  0  0  0  0  0  0  0  0 29  0  0
   14.0934  -12.9867   -0.1475 H   0  0  0  0  0  0  0  0  0 30  0  0
   15.4233  -12.9901   -0.1470 O   0  0  0  0  0  0  0  0  0 31  0  0
   15.1138  -13.1666   -0.1625 O   0  0  0  0  0  0  0  0  0 32  0  0
   14.9366  -12.8583   -0.1358 O   0  0  0  0  0  0  0  0  0 33  0  0
   12.6074  -13.0611   -0.1547 H   0  0  0  0  0  0  0  0  0  0  0  0
   12.6035  -14.5404    0.5362 H   0  0  0  0  0  0  0  0  0  0  0  0
   12.6044  -14.3990   -1.0904 H   0  0  0  0  0  0  0  0  0  0  0  0
   14.4287  -16.0151   -0.4104 H   0  0  0  0  0  0  0  0  0  0  0  0
   17.8777  -15.7296    0.4359 H   0  0  0  0  0  0  0  0  0  0  0  0
   17.8786  -15.5883   -1.1912 H   0  0  0  0  0  0  0  0  0  0  0  0
   17.5292  -14.2564   -0.8745 H   0  0  0  0  0  0  0  0  0  0  0  0
   19.9246  -13.0795   -0.1524 H   0  0  0  0  0  0  0  0  0  0  0  0
   19.9216  -14.4174   -1.0881 H   0  0  0  0  0  0  0  0  0  0  0  0
   19.9207  -14.5587    0.5386 H   0  0  0  0  0  0  0  0  0  0  0  0
   18.2479  -12.1092   -0.0690 H   0  0  0  0  0  0  0  0  0  0  0  0
   17.0212  -12.8810    0.6828 H   0  0  0  0  0  0  0  0  0  0  0  0
   17.0220  -12.7396   -0.9438 H   0  0  0  0  0  0  0  0  0  0  0  0
   18.2825  -13.6727   -0.2047 H   0  0  0  0  0  0  0  0  0  0  0  0
   17.9244  -10.3070    0.9072 H   0  0  0  0  0  0  0  0  0  0  0  0
   17.9253  -10.1655   -0.7199 H   0  0  0  0  0  0  0  0  0  0  0  0
   16.6470  -10.7735   -0.0198 H   0  0  0  0  0  0  0  0  0  0  0  0
   15.3356   -8.1973    0.2694 H   0  0  0  0  0  0  0  0  0  0  0  0
   16.7500   -8.1302   -0.5435 H   0  0  0  0  0  0  0  0  0  0  0  0
   16.7491   -8.2715    1.0832 H   0  0  0  0  0  0  0  0  0  0  0  0
   14.3617   -9.8677    0.1238 H   0  0  0  0  0  0  0  0  0  0  0  0
   15.0651  -11.1601    0.8314 H   0  0  0  0  0  0  0  0  0  0  0  0
   15.0659  -11.0188   -0.7953 H   0  0  0  0  0  0  0  0  0  0  0  0
   15.9312   -9.8333    0.1275 H   0  0  0  0  0  0  0  0  0  0  0  0
   13.5634  -10.8563   -0.7762 H   0  0  0  0  0  0  0  0  0  0  0  0
   13.7262   -9.1158    1.0086 H   0  0  0  0  0  0  0  0  0  0  0  0
   13.7272   -8.9742   -0.6185 H   0  0  0  0  0  0  0  0  0  0  0  0
   11.8175   -9.9653   -0.7059 H   0  0  0  0  0  0  0  0  0  0  0  0
   11.8166  -10.1069    0.9212 H   0  0  0  0  0  0  0  0  0  0  0  0
   11.7343   -7.9632    1.1077 H   0  0  0  0  0  0  0  0  0  0  0  0
   11.7352   -7.8217   -0.5195 H   0  0  0  0  0  0  0  0  0  0  0  0
    9.6129   -9.2478    0.1752 H   0  0  0  0  0  0  0  0  0  0  0  0
    9.6227   -5.2280    0.5245 H   0  0  0  0  0  0  0  0  0  0  0  0
   11.1206   -6.0944    0.4501 H   0  0  0  0  0  0  0  0  0  0  0  0
    7.6251   -6.3706    0.4241 H   0  0  0  0  0  0  0  0  0  0  0  0
    7.6207   -8.0961    0.2742 H   0  0  0  0  0  0  0  0  0  0  0  0
  1  2  1  0  0  0  0
  2  3  1  0  0  0  0
  2 33  2  0  0  0  0
  3  4  1  0  0  0  0
  4  5  1  1  0  0  0
  4  6  1  0  0  0  0
  4 10  1  0  0  0  0
  6  7  1  0  0  0  0
  7  8  1  0  0  0  0
  7  9  1  0  0  0  0
 10 11  1  0  0  0  0
 10 32  2  0  0  0  0
 11 12  1  0  0  0  0
 12 13  1  1  0  0  0
 12 14  1  0  0  0  0
 12 18  1  0  0  0  0
 14 15  1  0  0  0  0
 15 16  1  0  0  0  0
 15 17  1  0  0  0  0
 18 19  1  0  0  0  0
 18 31  2  0  0  0  0
 19 20  1  0  0  0  0
 20 21  1  0  0  0  0
 20 28  1  0  0  0  0
 21 22  1  0  0  0  0
 22 23  1  0  0  0  0
 23 24  1  0  0  0  0
 24 25  1  0  0  0  0
 25 26  1  0  0  0  0
 25 27  2  0  0  0  0
 28 29  2  0  0  0  0
 28 30  1  0  0  0  0
  1 34  1  0  0  0  0
  1 35  1  0  0  0  0
  1 36  1  0  0  0  0
  3 37  1  0  0  0  0
  6 38  1  0  0  0  0
  6 39  1  0  0  0  0
  7 40  1  0  0  0  0
  8 41  1  0  0  0  0
  8 42  1  0  0  0  0
  8 43  1  0  0  0  0
  9 44  1  0  0  0  0
  9 45  1  0  0  0  0
  9 46  1  0  0  0  0
 11 47  1  0  0  0  0
 14 48  1  0  0  0  0
 14 49  1  0  0  0  0
 15 50  1  0  0  0  0
 16 51  1  0  0  0  0
 16 52  1  0  0  0  0
 16 53  1  0  0  0  0
 17 54  1  0  0  0  0
 17 55  1  0  0  0  0
 17 56  1  0  0  0  0
 19 57  1  0  0  0  0
 20 58  1  0  0  0  0
 21 59  1  0  0  0  0
 21 60  1  0  0  0  0
 22 61  1  0  0  0  0
 22 62  1  0  0  0  0
 23 63  1  0  0  0  0
 23 64  1  0  0  0  0
 24 65  1  0  0  0  0
 26 66  1  0  0  0  0
 26 67  1  0  0  0  0
 27 68  1  0  0  0  0
 27 69  1  0  0  0  0
M  END
>  <Substance ID> (390)
390

>  <Mouse_Female_Canc> (390)
1

>  <SAL> (390)
ND

>  <Rat_Male_Canc> (390)
ND

>  <TD50_Rat> (390)
ND

>  <TD50_Mouse> (390)
55.8

>  <Rat_Female_Canc> (390)
ND

>  <Canc> (390)
3

>  <MolWeight> (390)
426.57

>  <Mouse_Male_Canc> (390)
3

>  <Mouse_Male_NTP> (390)
ND

>  <ChemName> (390)
Leupeptin

>  <Rat_Male_NTP> (390)
ND

>  <Reference> (390)
CPDB

>  <Formula> (390)
C20H38N6O4

>  <SMILES> (390)
CC(N[C@@H](CC(C)C)C(N[C@@H](CC(C)C)C(NC(CCCNC(N)=[N+])C(=O)[H])=O)=O)=O

>  <Rat_Female_NTP> (390)
ND

>  <CAS> (390)
24365-47-7

>  <Mouse_Female_NTP> (390)
ND

>  <Synonyms> (390)
-

$$$$
391


 24 24  0  0  0  0  0  0  0  0999 V2000
    1.8910  -71.3235    0.5364 C   0  0  0  0  0  0  0  0  0  0  0  0
    2.1942  -72.7750    0.1149 C   0  0  0  0  0  0  0  0  0  0  0  0
    3.6794  -73.0120    0.0445 C   0  0  0  0  0  0  0  0  0  0  0  0
    4.5514  -72.0031   -0.0158 C   0  0  0  0  0  0  0  0  0  0  0  0
    4.0885  -70.5594   -0.0337 C   0  0  0  0  0  0  0  0  0  0  0  0
    2.6435  -70.4342   -0.3356 N   0  0  0  0  0  0  0  0  0  0  0  0
    2.2438  -69.0387   -0.1122 C   0  0  0  0  0  0  0  0  0  0  0  0
    5.9880  -72.2967   -0.0463 C   0  0  0  0  0  0  0  0  0  0  0  0
    6.8046  -71.3700   -0.1023 O   0  0  0  0  0  0  0  0  0  0  0  0
    6.4329  -73.6181   -0.0076 O   0  0  0  0  0  0  0  0  0  0  0  0
    7.8635  -73.6435   -0.0423 C   0  0  0  0  0  0  0  0  0  0  0  0
    0.9121  -71.1410    0.4437 H   0  0  0  0  0  0  0  0  0  0  0  0
    2.1684  -71.1814    1.4866 H   0  0  0  0  0  0  0  0  0  0  0  0
    1.7937  -73.4011    0.7840 H   0  0  0  0  0  0  0  0  0  0  0  0
    1.7920  -72.9459   -0.7845 H   0  0  0  0  0  0  0  0  0  0  0  0
    4.0222  -73.9514    0.0428 H   0  0  0  0  0  0  0  0  0  0  0  0
    4.2655  -70.1543    0.8633 H   0  0  0  0  0  0  0  0  0  0  0  0
    4.6065  -70.0647   -0.7315 H   0  0  0  0  0  0  0  0  0  0  0  0
    2.7686  -68.4402   -0.7175 H   0  0  0  0  0  0  0  0  0  0  0  0
    2.4222  -68.7886    0.8395 H   0  0  0  0  0  0  0  0  0  0  0  0
    1.2682  -68.9357   -0.3063 H   0  0  0  0  0  0  0  0  0  0  0  0
    8.1813  -74.5912   -0.0145 H   0  0  0  0  0  0  0  0  0  0  0  0
    8.2254  -73.1478    0.7473 H   0  0  0  0  0  0  0  0  0  0  0  0
    8.1848  -73.2093   -0.8839 H   0  0  0  0  0  0  0  0  0  0  0  0
  1  2  1  0  0  0  0
  1  6  1  0  0  0  0
  2  3  1  0  0  0  0
  3  4  2  0  0  0  0
  4  5  1  0  0  0  0
  5  6  1  0  0  0  0
  6  7  1  0  0  0  0
  4  8  1  0  0  0  0
  8  9  2  0  0  0  0
  8 10  1  0  0  0  0
 10 11  1  0  0  0  0
  1 12  1  0  0  0  0
  1 13  1  0  0  0  0
  2 14  1  0  0  0  0
  2 15  1  0  0  0  0
  3 16  1  0  0  0  0
  5 17  1  0  0  0  0
  5 18  1  0  0  0  0
  7 19  1  0  0  0  0
  7 20  1  0  0  0  0
  7 21  1  0  0  0  0
 11 22  1  0  0  0  0
 11 23  1  0  0  0  0
 11 24  1  0  0  0  0
M  END
>  <Substance ID> (391)
391

>  <Mouse_Female_Canc> (391)
3

>  <SAL> (391)
ND

>  <Rat_Male_Canc> (391)
ND

>  <TD50_Rat> (391)
ND

>  <TD50_Mouse> (391)
39.5

>  <Rat_Female_Canc> (391)
ND

>  <Canc> (391)
3

>  <MolWeight> (391)
155.20

>  <Mouse_Male_Canc> (391)
3

>  <Mouse_Male_NTP> (391)
ND

>  <ChemName> (391)
Arecoline Hydrochloride

>  <Rat_Male_NTP> (391)
ND

>  <Reference> (391)
CPDB

>  <Formula> (391)
C8H13NO2

>  <SMILES> (391)
O=C(OC)\C1=C\CCN(C)C1

>  <Rat_Female_NTP> (391)
ND

>  <CAS> (391)
61-94-9

>  <Mouse_Female_NTP> (391)
ND

>  <Synonyms> (391)
-

$$$$
392


 22 23  0  0  0  0  0  0  0  0999 V2000
    4.4087  -85.6800   -0.0009 C   0  0  0  0  0  0  0  0  0  0  0  0
    5.7416  -85.7000   -0.0012 C   0  0  0  0  0  0  0  0  0  0  0  0
    5.8441  -83.2785   -0.0007 C   0  0  0  0  0  0  0  0  0  0  0  0
    4.3768  -83.2598   -0.0002 C   0  0  0  0  0  0  0  0  0  0  0  0
    6.4987  -84.4401   -0.0010 C   0  0  0  0  0  0  0  0  0  0  0  0
    3.6954  -84.4030    0.0001 C   0  0  0  0  0  0  0  0  0  0  0  0
    7.9775  -84.4590   -0.0005 C   0  0  0  0  0  0  0  0  0  0  0  0
    8.6328  -85.6200   -0.0001 C   0  0  0  0  0  0  0  0  0  0  0  0
   10.7825  -84.4937   -0.0002 C   0  0  0  0  0  0  0  0  0  0  0  0
   10.0675  -83.2185   -0.0001 C   0  0  0  0  0  0  0  0  0  0  0  0
   10.1017  -85.6374    0.0001 C   0  0  0  0  0  0  0  0  0  0  0  0
    8.7350  -83.1982    0.0001 C   0  0  0  0  0  0  0  0  0  0  0  0
    2.2630  -84.3837    0.0011 ?   0  0  0  0  0  0  0  0  0  0  0  0
    3.6736  -86.9078    0.0010 ?   0  0  0  0  0  0  0  0  0  0  0  0
    3.6752  -82.0115    0.0005 ?   0  0  0  0  0  0  0  0  0  0  0  0
    6.5721  -82.0456   -0.0004 ?   0  0  0  0  0  0  0  0  0  0  0  0
    6.4344  -86.9511   -0.0006 ?   0  0  0  0  0  0  0  0  0  0  0  0
    7.9056  -86.8525   -0.0002 ?   0  0  0  0  0  0  0  0  0  0  0  0
   10.8033  -86.8857    0.0002 ?   0  0  0  0  0  0  0  0  0  0  0  0
   12.2149  -84.5117   -0.0003 ?   0  0  0  0  0  0  0  0  0  0  0  0
   10.8026  -81.9898    0.0005 ?   0  0  0  0  0  0  0  0  0  0  0  0
    8.0416  -81.9460    0.0006 ?   0  0  0  0  0  0  0  0  0  0  0  0
  1  2  2  0  0  0  0
  3  4  1  0  0  0  0
  1  6  1  0  0  0  0
  2  5  1  0  0  0  0
  5  3  2  0  0  0  0
  4  6  2  0  0  0  0
  5  7  1  0  0  0  0
  7  8  2  0  0  0  0
  9 10  1  0  0  0  0
  7 12  1  0  0  0  0
  8 11  1  0  0  0  0
 11  9  2  0  0  0  0
 10 12  2  0  0  0  0
  6 13  1  0  0  0  0
  1 14  1  0  0  0  0
  4 15  1  0  0  0  0
  3 16  1  0  0  0  0
  2 17  1  0  0  0  0
  8 18  1  0  0  0  0
 11 19  1  0  0  0  0
  9 20  1  0  0  0  0
 10 21  1  0  0  0  0
 12 22  1  0  0  0  0
M  END
>  <Substance ID> (392)
392

>  <Mouse_Female_Canc> (392)
ND

>  <SAL> (392)
ND

>  <Rat_Male_Canc> (392)
3

>  <TD50_Rat> (392)
157

>  <TD50_Mouse> (392)
ND

>  <Rat_Female_Canc> (392)
ND

>  <Canc> (392)
3

>  <MolWeight> (392)
Unspecified 

>  <Mouse_Male_Canc> (392)
ND

>  <Mouse_Male_NTP> (392)
ND

>  <ChemName> (392)
Clophen A 30

>  <Rat_Male_NTP> (392)
ND

>  <Reference> (392)
CPDB

>  <Formula> (392)
Unspecified 

>  <SMILES> (392)
Unspecified 

>  <Rat_Female_NTP> (392)
ND

>  <CAS> (392)
55600-34-5

>  <Mouse_Female_NTP> (392)
ND

>  <Synonyms> (392)
-

$$$$
393
  

 22 23  0  0  0  0  0  0  0  0999 V2000
   13.7715  -15.2182    0.0175 Cl  0  0  0  0  0  0  0  0  0  1  0  0
   13.2796  -13.6275    0.0032 C   0  0  0  0  0  0  0  0  0  2  0  0
   14.0698  -12.4998   -0.0024 C   0  0  0  0  0  0  0  0  0  3  0  0
   13.1412  -11.1639   -0.0146 C   0  0  0  0  0  0  0  0  0  4  0  0
   11.8172  -11.2532   -0.0129 C   0  0  0  0  0  0  0  0  0  5  0  0
   11.1456  -12.4707   -0.0030 C   0  0  0  0  0  0  0  0  0  6  0  0
   11.8294  -13.5864    0.0028 C   0  0  0  0  0  0  0  0  0  7  0  0
   10.9769  -15.0850    0.0110 Cl  0  0  0  0  0  0  0  0  0  8  0  0
    9.4220  -12.5160   -0.0010 Cl  0  0  0  0  0  0  0  0  0  9  0  0
   13.6014   -9.5183   -0.0395 Cl  0  0  0  0  0  0  0  0  0 10  0  0
   15.8105  -12.5434    0.0011 C   0  0  0  0  0  0  0  0  0 11  0  0
   16.7386  -13.8845   -0.0106 C   0  0  0  0  0  0  0  0  0 12  0  0
   18.0627  -13.8023   -0.0080 C   0  0  0  0  0  0  0  0  0 13  0  0
   18.7403  -12.5913    0.0046 C   0  0  0  0  0  0  0  0  0 14  0  0
   18.0589  -11.4749    0.0173 C   0  0  0  0  0  0  0  0  0 15  0  0
   16.6031  -11.4179    0.0175 C   0  0  0  0  0  0  0  0  0 16  0  0
   16.1133   -9.8222    0.0435 Cl  0  0  0  0  0  0  0  0  0 17  0  0
   20.4639  -12.5568    0.0040 Cl  0  0  0  0  0  0  0  0  0 18  0  0
   16.2780  -15.5304   -0.0277 Cl  0  0  0  0  0  0  0  0  0 19  0  0
   11.2801  -10.4097   -0.0191 H   0  0  0  0  0  0  0  0  0  0  0  0
   18.5950  -14.6488   -0.0153 H   0  0  0  0  0  0  0  0  0  0  0  0
   18.5653  -10.6126    0.0274 H   0  0  0  0  0  0  0  0  0  0  0  0
  1  2  1  0  0  0  0
  2  3  2  0  0  0  0
  2  7  1  0  0  0  0
  3  4  1  0  0  0  0
  3 11  1  0  0  0  0
  4  5  2  0  0  0  0
  4 10  1  0  0  0  0
  5  6  1  0  0  0  0
  6  7  2  0  0  0  0
  6  9  1  0  0  0  0
  7  8  1  0  0  0  0
 11 12  1  0  0  0  0
 11 16  2  0  0  0  0
 12 13  2  0  0  0  0
 12 19  1  0  0  0  0
 13 14  1  0  0  0  0
 14 15  2  0  0  0  0
 14 18  1  0  0  0  0
 15 16  1  0  0  0  0
 16 17  1  0  0  0  0
  5 20  1  0  0  0  0
 13 21  1  0  0  0  0
 15 22  1  0  0  0  0
M  END
>  <Substance ID> (393)
393

>  <Mouse_Female_Canc> (393)
ND

>  <SAL> (393)
ND

>  <Rat_Male_Canc> (393)
3

>  <TD50_Rat> (393)
1.74

>  <TD50_Mouse> (393)
ND

>  <Rat_Female_Canc> (393)
3

>  <Canc> (393)
3

>  <MolWeight> (393)
395.33

>  <Mouse_Male_Canc> (393)
ND

>  <Mouse_Male_NTP> (393)
ND

>  <ChemName> (393)
Aroclor 1260

>  <Rat_Male_NTP> (393)
ND

>  <Reference> (393)
CPDB

>  <Formula> (393)
C12H3Cl7 

>  <SMILES> (393)
Clc2c(c(cc(c2Cl)Cl)Cl)c3c(cc(cc3Cl)Cl)Cl

>  <Rat_Female_NTP> (393)
ND

>  <CAS> (393)
11096-82-5

>  <Mouse_Female_NTP> (393)
ND

>  <Synonyms> (393)
Arochlor 1260; Chlorodiphenyl (60% Cl); Clophen A 60; pcb-1260; polychlorinated biphenyl 1260.

$$$$
394


 39 41  0  0  0  0  0  0  0  0999 V2000
   36.5129  -17.0397    0.0160 C   0  0  0  0  0  0  0  0  0  0  0  0
   36.6478  -18.3556   -0.0196 C   0  0  0  0  0  0  0  0  0  0  0  0
   38.0045  -18.7876   -0.0373 O   0  0  0  0  0  0  0  0  0  0  0  0
   38.6615  -17.5315   -0.0038 C   0  0  0  0  0  0  0  0  0  0  0  0
   37.8244  -16.5019    0.0274 C   0  0  0  0  0  0  0  0  0  0  0  0
   40.1229  -17.3504    0.0060 C   0  0  0  0  0  0  0  0  0  0  0  0
   40.9395  -18.3229   -0.0521 N   0  0  0  0  0  0  0  0  0  0  0  0
   47.2802  -17.3508    0.2785 C   0  0  0  0  0  0  0  0  0  0  0  0
   48.7263  -17.4428   -0.2558 C   0  0  0  0  0  0  0  0  0  0  0  0
   49.4712  -16.2851    0.1656 O   0  0  0  0  0  0  0  0  0  0  0  0
   48.8746  -15.0891   -0.3577 C   0  0  0  0  0  0  0  0  0  0  0  0
   47.4314  -14.9606    0.1714 C   0  0  0  0  0  0  0  0  0  0  0  0
   46.6402  -16.1302   -0.2542 N   0  0  0  0  0  0  0  0  0  0  0  0
   42.8005  -16.7738    0.2557 C   0  0  0  0  0  0  0  0  0  0  0  0
   42.2598  -18.0572   -0.0019 N   0  0  0  0  0  0  0  0  0  0  0  0
   43.2611  -19.0047    0.0010 C   0  0  0  0  0  0  0  0  0  0  0  0
   44.5457  -18.4349    0.0776 O   0  0  0  0  0  0  0  0  0  0  0  0
   44.2442  -17.0410   -0.2210 C   0  0  1  0  0  0  0  0  0  0  0  0
   43.0475  -20.2198    0.0478 O   0  0  0  0  0  0  0  0  0  0  0  0
   45.2599  -15.9635    0.2683 C   0  0  0  0  0  0  0  0  0  0  0  0
   35.5600  -19.2214   -0.0351 N   0  3  0  0  0  0  0  0  0  0  0  0
   34.3316  -18.7261   -0.0159 O   0  5  0  0  0  0  0  0  0  0  0  0
   35.7301  -20.3802   -0.0622 O   0  0  0  0  0  0  0  0  0  0  0  0
   35.6550  -16.5260    0.0318 H   0  0  0  0  0  0  0  0  0  0  0  0
   38.0714  -15.5332    0.0538 H   0  0  0  0  0  0  0  0  0  0  0  0
   40.4891  -16.4214    0.0608 H   0  0  0  0  0  0  0  0  0  0  0  0
   46.7635  -18.1546   -0.0162 H   0  0  0  0  0  0  0  0  0  0  0  0
   47.2951  -17.3113    1.2776 H   0  0  0  0  0  0  0  0  0  0  0  0
   49.1620  -18.2679    0.1040 H   0  0  0  0  0  0  0  0  0  0  0  0
   48.7100  -17.4825   -1.2548 H   0  0  0  0  0  0  0  0  0  0  0  0
   49.4084  -14.2953   -0.0660 H   0  0  0  0  0  0  0  0  0  0  0  0
   48.8606  -15.1332   -1.3566 H   0  0  0  0  0  0  0  0  0  0  0  0
   47.4465  -14.9151    1.1703 H   0  0  0  0  0  0  0  0  0  0  0  0
   47.0163  -14.1276   -0.1944 H   0  0  0  0  0  0  0  0  0  0  0  0
   42.3514  -16.0601   -0.2818 H   0  0  0  0  0  0  0  0  0  0  0  0
   42.7614  -16.5354    1.2261 H   0  0  0  0  0  0  0  0  0  0  0  0
   44.3362  -16.9301   -1.2106 H   0  0  0  0  0  0  0  0  0  0  0  0
   44.9245  -15.0662   -0.0185 H   0  0  0  0  0  0  0  0  0  0  0  0
   45.2981  -16.0021    1.2668 H   0  0  0  0  0  0  0  0  0  0  0  0
  1  2  2  0  0  0  0
  2  3  1  0  0  0  0
  3  4  1  0  0  0  0
  4  5  2  0  0  0  0
  1  5  1  0  0  0  0
  4  6  1  0  0  0  0
  6  7  2  0  0  0  0
  8  9  1  0  0  0  0
  8 13  1  0  0  0  0
  9 10  1  0  0  0  0
 10 11  1  0  0  0  0
 11 12  1  0  0  0  0
 12 13  1  0  0  0  0
 14 15  1  0  0  0  0
 15 16  1  0  0  0  0
 16 17  1  0  0  0  0
 17 18  1  0  0  0  0
 14 18  1  0  0  0  0
  7 15  1  0  0  0  0
 16 19  2  0  0  0  0
 18 20  1  0  0  0  0
 20 13  1  0  0  0  0
 21 22  1  0  0  0  0
 21 23  2  0  0  0  0
  2 21  1  0  0  0  0
  1 24  1  0  0  0  0
  5 25  1  0  0  0  0
  6 26  1  0  0  0  0
  8 27  1  0  0  0  0
  8 28  1  0  0  0  0
  9 29  1  0  0  0  0
  9 30  1  0  0  0  0
 11 31  1  0  0  0  0
 11 32  1  0  0  0  0
 12 33  1  0  0  0  0
 12 34  1  0  0  0  0
 14 35  1  0  0  0  0
 14 36  1  0  0  0  0
 18 37  1  0  0  0  0
 20 38  1  0  0  0  0
 20 39  1  0  0  0  0
M  END
>  <Substance ID> (394)
394

>  <Mouse_Female_Canc> (394)
ND

>  <SAL> (394)
ND

>  <Rat_Male_Canc> (394)
ND

>  <TD50_Rat> (394)
6.33

>  <TD50_Mouse> (394)
ND

>  <Rat_Female_Canc> (394)
3

>  <Canc> (394)
3

>  <MolWeight> (394)
324.29

>  <Mouse_Male_Canc> (394)
ND

>  <Mouse_Male_NTP> (394)
ND

>  <ChemName> (394)
L-5-morpholinomethyl-3-[(5-nitrofurfurylidene)amino]-2-oxazolidinone hydrochloride

>  <Rat_Male_NTP> (394)
ND

>  <Reference> (394)
CPDB

>  <Formula> (394)
C13H16N4O6

>  <SMILES> (394)
O1C(N(CC1CN2CCOCC2)/N=C/C3=CC=C(O3)[N+](=O)[O-])=O

>  <Rat_Female_NTP> (394)
ND

>  <CAS> (394)
3031-51-4

>  <Mouse_Female_NTP> (394)
ND

>  <Synonyms> (394)
-

$$$$
395


 33 32  0  0  0  0  0  0  0  0999 V2000
   34.6903  -32.1953   -0.0841 C   0  0  0  0  0  0  0  0  0  0  0  0
   36.0958  -31.9848    0.5085 C   0  0  0  0  0  0  0  0  0  0  0  0
   37.1553  -32.6639   -0.4005 C   0  0  0  0  0  0  0  0  0  0  0  0
   38.6091  -32.4182    0.1130 C   0  0  0  0  0  0  0  0  0  0  0  0
   39.0409  -31.0019   -0.0628 N   0  0  0  0  0  0  0  0  0  0  0  0
   40.4498  -30.6684   -0.0486 C   0  0  0  0  0  0  0  0  0  0  0  0
   41.4584  -31.6756    0.0780 N   0  0  0  0  0  0  0  0  0  0  0  0
   42.8609  -31.2219    0.0726 C   0  0  0  0  0  0  0  0  0  0  0  0
   43.8458  -32.3967    0.1402 C   0  0  0  0  0  0  0  0  0  0  0  0
   45.2772  -31.8185    0.1021 C   0  0  0  0  0  0  0  0  0  0  0  0
   46.3101  -32.9569    0.1441 C   0  0  0  0  0  0  0  0  0  0  0  0
   38.1090  -29.9915   -0.1524 N   0  0  0  0  0  0  0  0  0  0  0  0
   38.4312  -28.8668   -0.2574 O   0  0  0  0  0  0  0  0  0  0  0  0
   40.8081  -29.4922   -0.1531 O   0  0  0  0  0  0  0  0  0  0  0  0
   34.0109  -31.7566    0.5041 H   0  0  0  0  0  0  0  0  0  0  0  0
   34.4963  -33.1745   -0.1436 H   0  0  0  0  0  0  0  0  0  0  0  0
   34.6495  -31.7916   -0.9981 H   0  0  0  0  0  0  0  0  0  0  0  0
   36.2880  -31.0052    0.5678 H   0  0  0  0  0  0  0  0  0  0  0  0
   36.1347  -32.3885    1.4226 H   0  0  0  0  0  0  0  0  0  0  0  0
   36.9815  -33.6485   -0.4190 H   0  0  0  0  0  0  0  0  0  0  0  0
   37.0726  -32.2929   -1.3255 H   0  0  0  0  0  0  0  0  0  0  0  0
   38.6495  -32.6481    1.0854 H   0  0  0  0  0  0  0  0  0  0  0  0
   39.2340  -33.0101   -0.3961 H   0  0  0  0  0  0  0  0  0  0  0  0
   41.2225  -32.6433    0.1662 H   0  0  0  0  0  0  0  0  0  0  0  0
   43.0301  -30.7068   -0.7677 H   0  0  0  0  0  0  0  0  0  0  0  0
   43.0112  -30.6288    0.8636 H   0  0  0  0  0  0  0  0  0  0  0  0
   43.7081  -32.9070    0.9890 H   0  0  0  0  0  0  0  0  0  0  0  0
   43.7040  -33.0042   -0.6413 H   0  0  0  0  0  0  0  0  0  0  0  0
   45.3989  -31.2929   -0.7399 H   0  0  0  0  0  0  0  0  0  0  0  0
   45.4128  -31.2200    0.8917 H   0  0  0  0  0  0  0  0  0  0  0  0
   47.2325  -32.5717    0.1190 H   0  0  0  0  0  0  0  0  0  0  0  0
   46.1782  -33.5566   -0.6452 H   0  0  0  0  0  0  0  0  0  0  0  0
   46.1921  -33.4837    0.9859 H   0  0  0  0  0  0  0  0  0  0  0  0
  1  2  1  0  0  0  0
  2  3  1  0  0  0  0
  3  4  1  0  0  0  0
  4  5  1  0  0  0  0
  5  6  1  0  0  0  0
  6  7  1  0  0  0  0
  7  8  1  0  0  0  0
  8  9  1  0  0  0  0
  9 10  1  0  0  0  0
 10 11  1  0  0  0  0
  5 12  1  0  0  0  0
 12 13  2  0  0  0  0
  6 14  2  0  0  0  0
  1 15  1  0  0  0  0
  1 16  1  0  0  0  0
  1 17  1  0  0  0  0
  2 18  1  0  0  0  0
  2 19  1  0  0  0  0
  3 20  1  0  0  0  0
  3 21  1  0  0  0  0
  4 22  1  0  0  0  0
  4 23  1  0  0  0  0
  7 24  1  0  0  0  0
  8 25  1  0  0  0  0
  8 26  1  0  0  0  0
  9 27  1  0  0  0  0
  9 28  1  0  0  0  0
 10 29  1  0  0  0  0
 10 30  1  0  0  0  0
 11 31  1  0  0  0  0
 11 32  1  0  0  0  0
 11 33  1  0  0  0  0
M  END
>  <Substance ID> (395)
395

>  <Mouse_Female_Canc> (395)
ND

>  <SAL> (395)
ND

>  <Rat_Male_Canc> (395)
ND

>  <TD50_Rat> (395)
4.28

>  <TD50_Mouse> (395)
ND

>  <Rat_Female_Canc> (395)
3

>  <Canc> (395)
3

>  <MolWeight> (395)
201.27

>  <Mouse_Male_Canc> (395)
ND

>  <Mouse_Male_NTP> (395)
ND

>  <ChemName> (395)
1,3-Dibutyl-1-nitrosourea

>  <Rat_Male_NTP> (395)
ND

>  <Reference> (395)
CPDB

>  <Formula> (395)
C9H19N3O2

>  <SMILES> (395)
O=C(N(CCCC)N=O)NCCCC

>  <Rat_Female_NTP> (395)
ND

>  <CAS> (395)
56654-52-5

>  <Mouse_Female_NTP> (395)
ND

>  <Synonyms> (395)
-

$$$$
396


 11 10  0  0  0  0  0  0  0  0999 V2000
   37.6725  -41.3594    0.0003 C   0  0  0  0  0  0  0  0  0  0  0  0
   38.9785  -40.6190    0.0001 C   0  0  0  0  0  0  0  0  0  0  0  0
   40.2126  -41.3445   -0.0003 N   0  0  0  0  0  0  0  0  0  0  0  0
   41.4301  -40.6539   -0.0003 N   0  0  0  0  0  0  0  0  0  0  0  0
   38.9884  -39.3827   -0.0001 O   0  0  0  0  0  0  0  0  0  0  0  0
   36.9172  -40.7041    0.0005 H   0  0  0  0  0  0  0  0  0  0  0  0
   37.6147  -41.9341    0.8167 H   0  0  0  0  0  0  0  0  0  0  0  0
   37.6143  -41.9340   -0.8161 H   0  0  0  0  0  0  0  0  0  0  0  0
   40.2048  -42.3445   -0.0005 H   0  0  0  0  0  0  0  0  0  0  0  0
   42.2923  -41.1604   -0.0005 H   0  0  0  0  0  0  0  0  0  0  0  0
   41.4378  -39.6539   -0.0000 H   0  0  0  0  0  0  0  0  0  0  0  0
  1  2  1  0  0  0  0
  2  3  1  0  0  0  0
  3  4  1  0  0  0  0
  2  5  2  0  0  0  0
  1  6  1  0  0  0  0
  1  7  1  0  0  0  0
  1  8  1  0  0  0  0
  3  9  1  0  0  0  0
  4 10  1  0  0  0  0
  4 11  1  0  0  0  0
M  END
>  <Substance ID> (396)
396

>  <Mouse_Female_Canc> (396)
3

>  <SAL> (396)
3

>  <Rat_Male_Canc> (396)
ND

>  <TD50_Rat> (396)
ND

>  <TD50_Mouse> (396)
9.85

>  <Rat_Female_Canc> (396)
ND

>  <Canc> (396)
3

>  <MolWeight> (396)
74.08

>  <Mouse_Male_Canc> (396)
3

>  <Mouse_Male_NTP> (396)
ND

>  <ChemName> (396)
Monoacetyl hydrazine

>  <Rat_Male_NTP> (396)
ND

>  <Reference> (396)
CPDB

>  <Formula> (396)
C2H6N2O

>  <SMILES> (396)
CC(=O)NN

>  <Rat_Female_NTP> (396)
ND

>  <CAS> (396)
1068-57-1

>  <Mouse_Female_NTP> (396)
ND

>  <Synonyms> (396)
Acetic acid, hydrazide; Acethydrazide; Acetic hydrazide; Acetohydrazide; Acetyl hydrazide; N-Acetyldiamine.

$$$$
397


 39 39  0  0  0  0  0  0  0  0999 V2000
   37.5941  -49.2999    0.0508 C   0  0  0  0  0  0  0  0  0  0  0  0
   37.5887  -50.5705    0.0195 N   0  0  0  0  0  0  0  0  0  0  0  0
   39.8749  -50.6607    0.0218 N   0  0  0  0  0  0  0  0  0  0  0  0
   39.9032  -49.2707    0.0514 C   0  0  0  0  0  0  0  0  0  0  0  0
   38.7799  -51.2913    0.0087 C   0  0  0  0  0  0  0  0  0  0  0  0
   38.8120  -48.6211    0.0729 N   0  0  0  0  0  0  0  0  0  0  0  0
   36.3909  -48.5572    0.0466 N   0  0  0  0  0  0  0  0  0  0  0  0
   38.8032  -52.7101   -0.0183 N   0  0  0  0  0  0  0  0  0  0  0  0
   41.1260  -48.5768    0.0460 N   0  0  0  0  0  0  0  0  0  0  0  0
   36.4623  -47.1265    0.1159 C   0  0  0  0  0  0  0  0  0  0  0  0
   35.0846  -49.1871   -0.0420 C   0  0  0  0  0  0  0  0  0  0  0  0
   41.1145  -47.1400    0.1064 C   0  0  0  0  0  0  0  0  0  0  0  0
   42.4009  -49.2728   -0.0375 C   0  0  0  0  0  0  0  0  0  0  0  0
   40.0726  -53.3876   -0.0297 C   0  0  0  0  0  0  0  0  0  0  0  0
   39.8622  -54.8075   -0.0175 O   0  0  0  0  0  0  0  0  0  0  0  0
   42.2489  -50.6981   -0.1242 O   0  0  0  0  0  0  0  0  0  0  0  0
   42.4466  -46.6379   -0.0349 O   0  0  0  0  0  0  0  0  0  0  0  0
   35.1555  -46.5681   -0.0481 O   0  0  0  0  0  0  0  0  0  0  0  0
   35.1606  -50.5989   -0.1637 O   0  0  0  0  0  0  0  0  0  0  0  0
   37.5957  -53.5034   -0.0320 C   0  0  0  0  0  0  0  0  0  0  0  0
   36.4277  -52.7057    0.0069 O   0  0  0  0  0  0  0  0  0  0  0  0
   36.8300  -46.8552    1.0054 H   0  0  0  0  0  0  0  0  0  0  0  0
   37.0612  -46.7885   -0.6101 H   0  0  0  0  0  0  0  0  0  0  0  0
   34.5667  -48.9654    0.7842 H   0  0  0  0  0  0  0  0  0  0  0  0
   34.6083  -48.8230   -0.8423 H   0  0  0  0  0  0  0  0  0  0  0  0
   40.5446  -46.7814   -0.6329 H   0  0  0  0  0  0  0  0  0  0  0  0
   40.7415  -46.8479    0.9871 H   0  0  0  0  0  0  0  0  0  0  0  0
   42.8874  -48.9529   -0.8505 H   0  0  0  0  0  0  0  0  0  0  0  0
   42.9370  -49.0574    0.7787 H   0  0  0  0  0  0  0  0  0  0  0  0
   40.5777  -53.1334   -0.8545 H   0  0  0  0  0  0  0  0  0  0  0  0
   40.5983  -53.1224    0.7786 H   0  0  0  0  0  0  0  0  0  0  0  0
   40.7456  -55.2759   -0.0255 H   0  0  0  0  0  0  0  0  0  0  0  0
   43.1504  -51.1272   -0.1792 H   0  0  0  0  0  0  0  0  0  0  0  0
   42.4331  -45.6389    0.0078 H   0  0  0  0  0  0  0  0  0  0  0  0
   35.2101  -45.5708    0.0009 H   0  0  0  0  0  0  0  0  0  0  0  0
   34.2375  -50.9792   -0.2206 H   0  0  0  0  0  0  0  0  0  0  0  0
   37.5817  -54.0530   -0.8673 H   0  0  0  0  0  0  0  0  0  0  0  0
   37.5989  -54.1074    0.7650 H   0  0  0  0  0  0  0  0  0  0  0  0
   35.6202  -53.2955   -0.0042 H   0  0  0  0  0  0  0  0  0  0  0  0
  1  2  2  0  0  0  0
  3  4  1  0  0  0  0
  1  6  1  0  0  0  0
  2  5  1  0  0  0  0
  5  3  2  0  0  0  0
  4  6  2  0  0  0  0
  1  7  1  0  0  0  0
  5  8  1  0  0  0  0
  4  9  1  0  0  0  0
  7 10  1  0  0  0  0
  7 11  1  0  0  0  0
  9 12  1  0  0  0  0
  9 13  1  0  0  0  0
  8 14  1  0  0  0  0
 14 15  1  0  0  0  0
 13 16  1  0  0  0  0
 12 17  1  0  0  0  0
 10 18  1  0  0  0  0
 11 19  1  0  0  0  0
  8 20  1  0  0  0  0
 20 21  1  0  0  0  0
 10 22  1  0  0  0  0
 10 23  1  0  0  0  0
 11 24  1  0  0  0  0
 11 25  1  0  0  0  0
 12 26  1  0  0  0  0
 12 27  1  0  0  0  0
 13 28  1  0  0  0  0
 13 29  1  0  0  0  0
 14 30  1  0  0  0  0
 14 31  1  0  0  0  0
 15 32  1  0  0  0  0
 16 33  1  0  0  0  0
 17 34  1  0  0  0  0
 18 35  1  0  0  0  0
 19 36  1  0  0  0  0
 20 37  1  0  0  0  0
 20 38  1  0  0  0  0
 21 39  1  0  0  0  0
M  END
>  <Substance ID> (397)
397

>  <Mouse_Female_Canc> (397)
ND

>  <SAL> (397)
ND

>  <Rat_Male_Canc> (397)
ND

>  <TD50_Rat> (397)
10.2

>  <TD50_Mouse> (397)
ND

>  <Rat_Female_Canc> (397)
3

>  <Canc> (397)
3

>  <MolWeight> (397)
306.28

>  <Mouse_Male_Canc> (397)
ND

>  <Mouse_Male_NTP> (397)
ND

>  <ChemName> (397)
Hexa(hydroxymethyl)melamine

>  <Rat_Male_NTP> (397)
ND

>  <Reference> (397)
CPDB

>  <Formula> (397)
C9H18N6O6

>  <SMILES> (397)
N1=C(N=C(N(CO)CO)N=C1N(CO)CO)N(CO)CO

>  <Rat_Female_NTP> (397)
ND

>  <CAS> (397)
531-18-0

>  <Mouse_Female_NTP> (397)
ND

>  <Synonyms> (397)
Methanol, (1,3,5-triazine-2,4,6-triyltrinitrilo)hexakis-.

$$$$
398


 24 25  0  0  0  0  0  0  0  0999 V2000
   39.8854  -59.2794   -0.0005 C   0  0  0  0  0  0  0  0  0  0  0  0
   41.3190  -56.8787    0.0009 C   0  0  0  0  0  0  0  0  0  0  0  0
   39.8546  -56.8572    0.0009 C   0  0  0  0  0  0  0  0  0  0  0  0
   39.1717  -58.0007    0.0002 C   0  0  0  0  0  0  0  0  0  0  0  0
   41.9685  -58.0416    0.0002 C   0  0  0  0  0  0  0  0  0  0  0  0
   41.2172  -59.2990   -0.0006 C   0  0  0  0  0  0  0  0  0  0  0  0
   43.4314  -58.0623    0.0001 C   0  0  0  0  0  0  0  0  0  0  0  0
   44.0824  -59.2244    0.0000 C   0  0  0  0  0  0  0  0  0  0  0  0
   46.2279  -58.0989   -0.0008 C   0  0  0  0  0  0  0  0  0  0  0  0
   45.5126  -56.8217   -0.0009 C   0  0  0  0  0  0  0  0  0  0  0  0
   45.5468  -59.2435   -0.0004 C   0  0  0  0  0  0  0  0  0  0  0  0
   44.1811  -56.8040   -0.0004 C   0  0  0  0  0  0  0  0  0  0  0  0
   37.8304  -57.9812   -0.0002 F   0  0  0  0  0  0  0  0  0  0  0  0
   47.6239  -58.1166   -0.0008 N   0  0  0  0  0  0  0  0  0  0  0  0
   39.3728  -60.1380   -0.0009 H   0  0  0  0  0  0  0  0  0  0  0  0
   41.8315  -56.0200    0.0013 H   0  0  0  0  0  0  0  0  0  0  0  0
   39.3674  -55.9839    0.0015 H   0  0  0  0  0  0  0  0  0  0  0  0
   41.7043  -60.1724   -0.0011 H   0  0  0  0  0  0  0  0  0  0  0  0
   43.5712  -60.0839    0.0002 H   0  0  0  0  0  0  0  0  0  0  0  0
   46.0240  -55.9624   -0.0014 H   0  0  0  0  0  0  0  0  0  0  0  0
   46.0354  -60.1160   -0.0004 H   0  0  0  0  0  0  0  0  0  0  0  0
   43.6928  -55.9313   -0.0003 H   0  0  0  0  0  0  0  0  0  0  0  0
   48.1129  -58.9888   -0.0008 H   0  0  0  0  0  0  0  0  0  0  0  0
   48.1348  -57.2570   -0.0009 H   0  0  0  0  0  0  0  0  0  0  0  0
  1  6  2  0  0  0  0
  2  3  1  0  0  0  0
  1  4  1  0  0  0  0
  5  2  2  0  0  0  0
  3  4  2  0  0  0  0
  5  6  1  0  0  0  0
  5  7  1  0  0  0  0
  7  8  2  0  0  0  0
  9 10  1  0  0  0  0
  7 12  1  0  0  0  0
  8 11  1  0  0  0  0
 11  9  2  0  0  0  0
 10 12  2  0  0  0  0
  4 13  1  0  0  0  0
  9 14  1  0  0  0  0
  1 15  1  0  0  0  0
  2 16  1  0  0  0  0
  3 17  1  0  0  0  0
  6 18  1  0  0  0  0
  8 19  1  0  0  0  0
 10 20  1  0  0  0  0
 11 21  1  0  0  0  0
 12 22  1  0  0  0  0
 14 23  1  0  0  0  0
 14 24  1  0  0  0  0
M  END
>  <Substance ID> (398)
398

>  <Mouse_Female_Canc> (398)
3

>  <SAL> (398)
ND

>  <Rat_Male_Canc> (398)
ND

>  <TD50_Rat> (398)
ND

>  <TD50_Mouse> (398)
1.14

>  <Rat_Female_Canc> (398)
ND

>  <Canc> (398)
3

>  <MolWeight> (398)
187.22

>  <Mouse_Male_Canc> (398)
3

>  <Mouse_Male_NTP> (398)
ND

>  <ChemName> (398)
4'-Fluoro-4-aminobiphenyl

>  <Rat_Male_NTP> (398)
ND

>  <Reference> (398)
CPDB

>  <Formula> (398)
C12H10FN

>  <SMILES> (398)
NC1=CC=C(C=C1)C2=CC=C(C=C2)F

>  <Rat_Female_NTP> (398)
ND

>  <CAS> (398)
324-93-6

>  <Mouse_Female_NTP> (398)
ND

>  <Synonyms> (398)
4-Amino-4'-fluorobiphenyl.

$$$$
399


 27 28  0  0  0  0  0  0  0  0999 V2000
   43.4315  -70.9997   -0.0052 C   0  0  0  0  0  0  0  0  0  0  0  0
   42.8551  -72.1998   -0.0016 C   0  0  0  0  0  0  0  0  0  0  0  0
   43.7724  -73.3238   -0.0002 N   0  0  0  0  0  0  0  0  0  0  0  0
   45.0014  -72.9449   -0.0024 C   0  0  0  0  0  0  0  0  0  0  0  0
   45.1270  -71.1958   -0.0070 S   0  0  0  0  0  0  0  0  0  0  0  0
   39.3114  -71.5986    0.0020 C   0  0  0  0  0  0  0  0  0  0  0  0
   39.3228  -72.9223    0.0006 C   0  0  0  0  0  0  0  0  0  0  0  0
   40.6374  -73.4851   -0.0002 O   0  0  0  0  0  0  0  0  0  0  0  0
   41.3985  -72.2903    0.0002 C   0  0  0  0  0  0  0  0  0  0  0  0
   40.6555  -71.1910    0.0016 C   0  0  0  0  0  0  0  0  0  0  0  0
   46.1112  -73.8649    0.0000 N   0  0  0  0  0  0  0  0  0  0  0  0
   47.4582  -73.5407    0.0040 N   0  0  0  0  0  0  0  0  0  0  0  0
   47.9625  -72.1917   -0.0010 C   0  0  0  0  0  0  0  0  0  0  0  0
   48.4166  -74.6015    0.0147 C   0  0  0  0  0  0  0  0  0  0  0  0
   38.1554  -73.6606   -0.0006 N   0  3  0  0  0  0  0  0  0  0  0  0
   36.9901  -73.0319    0.0016 O   0  5  0  0  0  0  0  0  0  0  0  0
   38.1981  -74.8323   -0.0042 O   0  0  0  0  0  0  0  0  0  0  0  0
   42.9486  -70.1241   -0.0066 H   0  0  0  0  0  0  0  0  0  0  0  0
   38.5057  -71.0064    0.0031 H   0  0  0  0  0  0  0  0  0  0  0  0
   40.9899  -70.2486    0.0022 H   0  0  0  0  0  0  0  0  0  0  0  0
   45.8852  -74.8391   -0.0014 H   0  0  0  0  0  0  0  0  0  0  0  0
   48.9623  -72.2091    0.0033 H   0  0  0  0  0  0  0  0  0  0  0  0
   47.6345  -71.7096    0.8114 H   0  0  0  0  0  0  0  0  0  0  0  0
   47.6415  -71.7184   -0.8213 H   0  0  0  0  0  0  0  0  0  0  0  0
   49.3398  -74.2173    0.0165 H   0  0  0  0  0  0  0  0  0  0  0  0
   48.2943  -75.1701   -0.7988 H   0  0  0  0  0  0  0  0  0  0  0  0
   48.2870  -75.1602    0.8339 H   0  0  0  0  0  0  0  0  0  0  0  0
  1  2  2  0  0  0  0
  2  3  1  0  0  0  0
  3  4  2  0  0  0  0
  4  5  1  0  0  0  0
  1  5  1  0  0  0  0
  6  7  2  0  0  0  0
  7  8  1  0  0  0  0
  8  9  1  0  0  0  0
  9 10  2  0  0  0  0
  6 10  1  0  0  0  0
  9  2  1  0  0  0  0
  4 11  1  0  0  0  0
 11 12  1  0  0  0  0
 12 13  1  0  0  0  0
 12 14  1  0  0  0  0
 15 16  1  0  0  0  0
 15 17  2  0  0  0  0
  7 15  1  0  0  0  0
  1 18  1  0  0  0  0
  6 19  1  0  0  0  0
 10 20  1  0  0  0  0
 11 21  1  0  0  0  0
 13 22  1  0  0  0  0
 13 23  1  0  0  0  0
 13 24  1  0  0  0  0
 14 25  1  0  0  0  0
 14 26  1  0  0  0  0
 14 27  1  0  0  0  0
M  END
>  <Substance ID> (399)
399

>  <Mouse_Female_Canc> (399)
ND

>  <SAL> (399)
3

>  <Rat_Male_Canc> (399)
ND

>  <TD50_Rat> (399)
0.41

>  <TD50_Mouse> (399)
ND

>  <Rat_Female_Canc> (399)
3

>  <Canc> (399)
3

>  <MolWeight> (399)
254.26

>  <Mouse_Male_Canc> (399)
ND

>  <Mouse_Male_NTP> (399)
ND

>  <ChemName> (399)
2-(2,2-Dimethylhydrazino)-4-(5-nitro-2-furyl)thiazole

>  <Rat_Male_NTP> (399)
ND

>  <Reference> (399)
CPDB

>  <Formula> (399)
C9H10N4O3S

>  <SMILES> (399)
[O-][N+](=O)c2oc(c1nc(sc1)NN(C)C)cc2

>  <Rat_Female_NTP> (399)
ND

>  <CAS> (399)
26049-69-4

>  <Mouse_Female_NTP> (399)
ND

>  <Synonyms> (399)
-

$$$$
400


 15 14  0  0  0  0  0  0  0  0999 V2000
   37.0882  -75.7432   -0.3918 N   0  0  0  0  0  0  0  0  0  0  0  0
   37.3899  -74.3828   -0.0436 C   0  0  0  0  0  0  0  0  0  0  0  0
   38.7148  -73.9487   -0.0674 N   0  0  0  0  0  0  0  0  0  0  0  0
   39.7379  -74.9006   -0.4929 C   0  0  0  0  0  0  0  0  0  0  0  0
   41.1397  -74.6760    0.0304 C   0  0  0  0  0  0  0  0  0  0  0  0
   42.1547  -75.5411   -0.3648 O   0  0  0  0  0  0  0  0  0  0  0  0
   36.4835  -73.6107    0.2550 O   0  0  0  0  0  0  0  0  0  0  0  0
   41.3980  -73.7611    0.8183 O   0  0  0  0  0  0  0  0  0  0  0  0
   38.9603  -72.6557    0.2636 N   0  0  0  0  0  0  0  0  0  0  0  0
   39.9662  -72.1074   -0.0061 O   0  0  0  0  0  0  0  0  0  0  0  0
   36.1414  -76.0647   -0.3779 H   0  0  0  0  0  0  0  0  0  0  0  0
   37.8249  -76.3689   -0.6481 H   0  0  0  0  0  0  0  0  0  0  0  0
   39.4467  -75.8101   -0.1962 H   0  0  0  0  0  0  0  0  0  0  0  0
   39.7801  -74.8728   -1.4916 H   0  0  0  0  0  0  0  0  0  0  0  0
   43.0153  -75.2631    0.0620 H   0  0  0  0  0  0  0  0  0  0  0  0
  1  2  1  0  0  0  0
  2  3  1  0  0  0  0
  3  4  1  0  0  0  0
  4  5  1  0  0  0  0
  5  6  1  0  0  0  0
  2  7  2  0  0  0  0
  5  8  2  0  0  0  0
  3  9  1  0  0  0  0
  9 10  2  0  0  0  0
  1 11  1  0  0  0  0
  1 12  1  0  0  0  0
  4 13  1  0  0  0  0
  4 14  1  0  0  0  0
  6 15  1  0  0  0  0
M  END
>  <Substance ID> (400)
400

>  <Mouse_Female_Canc> (400)
ND

>  <SAL> (400)
1

>  <Rat_Male_Canc> (400)
3

>  <TD50_Rat> (400)
4.31

>  <TD50_Mouse> (400)
ND

>  <Rat_Female_Canc> (400)
3

>  <Canc> (400)
3

>  <MolWeight> (400)
147.09

>  <Mouse_Male_Canc> (400)
ND

>  <Mouse_Male_NTP> (400)
ND

>  <ChemName> (400)
Carboxymethylnitrosourea

>  <Rat_Male_NTP> (400)
ND

>  <Reference> (400)
CPDB

>  <Formula> (400)
C3H5N3O4

>  <SMILES> (400)
N(C(=O)N)(N=O)CC(=O)O

>  <Rat_Female_NTP> (400)
ND

>  <CAS> (400)
60391-92-6

>  <Mouse_Female_NTP> (400)
ND

>  <Synonyms> (400)
CMNU.

$$$$
401


 11 10  0  0  0  0  0  0  0  0999 V2000
   38.3243  -82.6026    0.0162 C   0  0  0  0  0  0  0  0  0  0  0  0
   39.5462  -81.8503   -0.0008 N   0  3  0  0  0  0  0  0  0  0  0  0
   39.5072  -80.5257   -0.0409 O   0  5  0  0  0  0  0  0  0  0  0  0
   40.6109  -82.4250    0.0215 N   0  0  0  0  0  0  0  0  0  0  0  0
   41.8341  -81.6746    0.0035 C   0  0  0  0  0  0  0  0  0  0  0  0
   38.5343  -83.5798    0.0466 H   0  0  0  0  0  0  0  0  0  0  0  0
   37.7967  -82.4010   -0.8091 H   0  0  0  0  0  0  0  0  0  0  0  0
   37.7892  -82.3519    0.8230 H   0  0  0  0  0  0  0  0  0  0  0  0
   42.6116  -82.3030    0.0263 H   0  0  0  0  0  0  0  0  0  0  0  0
   41.8686  -81.0733    0.8019 H   0  0  0  0  0  0  0  0  0  0  0  0
   41.8756  -81.1238   -0.8301 H   0  0  0  0  0  0  0  0  0  0  0  0
  1  2  1  0  0  0  0
  2  3  1  0  0  0  0
  2  4  2  0  0  0  0
  4  5  1  0  0  0  0
  1  6  1  0  0  0  0
  1  7  1  0  0  0  0
  1  8  1  0  0  0  0
  5  9  1  0  0  0  0
  5 10  1  0  0  0  0
  5 11  1  0  0  0  0
M  END
>  <Substance ID> (401)
401

>  <Mouse_Female_Canc> (401)
ND

>  <SAL> (401)
3

>  <Rat_Male_Canc> (401)
3

>  <TD50_Rat> (401)
0.0466

>  <TD50_Mouse> (401)
ND

>  <Rat_Female_Canc> (401)
ND

>  <Canc> (401)
3

>  <MolWeight> (401)
74.08

>  <Mouse_Male_Canc> (401)
ND

>  <Mouse_Male_NTP> (401)
ND

>  <ChemName> (401)
Azoxymethane

>  <Rat_Male_NTP> (401)
ND

>  <Reference> (401)
CPDB

>  <Formula> (401)
C2H6N2O

>  <SMILES> (401)
C[N+](=NC)[O-]

>  <Rat_Female_NTP> (401)
ND

>  <CAS> (401)
25843-45-2

>  <Mouse_Female_NTP> (401)
ND

>  <Synonyms> (401)
AOM; dimethyldiazene-1-oxide; Z-methyl-O,N,N-azoxymethane.

$$$$
402


 29 30  0  0  0  0  0  0  0  0999 V2000
   40.6420  -92.7793   -0.0159 C   0  0  0  0  0  0  0  0  0  0  0  0
   41.9647  -92.6622   -0.0061 C   0  0  0  0  0  0  0  0  0  0  0  0
   41.8335  -90.2505   -0.0204 C   0  0  0  0  0  0  0  0  0  0  0  0
   40.3659  -90.3842   -0.0275 C   0  0  0  0  0  0  0  0  0  0  0  0
   42.5917  -91.3470   -0.0084 C   0  0  0  0  0  0  0  0  0  0  0  0
   39.7983  -91.5950   -0.0249 C   0  0  0  0  0  0  0  0  0  0  0  0
   44.0549  -91.2707    0.0005 C   0  0  0  0  0  0  0  0  0  0  0  0
   44.7561  -92.4034    0.0232 C   0  0  0  0  0  0  0  0  0  0  0  0
   46.8536  -91.2030    0.0127 C   0  0  0  0  0  0  0  0  0  0  0  0
   46.0849  -89.9511   -0.0142 C   0  0  0  0  0  0  0  0  0  0  0  0
   46.2166  -92.3707    0.0311 C   0  0  0  0  0  0  0  0  0  0  0  0
   44.7514  -89.9810   -0.0175 C   0  0  0  0  0  0  0  0  0  0  0  0
   38.3935  -91.7818   -0.0259 N   0  0  0  0  0  0  0  0  0  0  0  0
   48.1963  -91.1735    0.0184 F   0  0  0  0  0  0  0  0  0  0  0  0
   37.4476  -90.7380    0.0122 C   0  0  0  0  0  0  0  0  0  0  0  0
   35.9872  -91.0794    0.0188 C   0  0  0  0  0  0  0  0  0  0  0  0
   37.7900  -89.5517    0.0480 O   0  0  0  0  0  0  0  0  0  0  0  0
   40.2236  -93.6875   -0.0170 H   0  0  0  0  0  0  0  0  0  0  0  0
   42.5351  -93.4835    0.0028 H   0  0  0  0  0  0  0  0  0  0  0  0
   42.2572  -89.3447   -0.0244 H   0  0  0  0  0  0  0  0  0  0  0  0
   39.7917  -89.5655   -0.0342 H   0  0  0  0  0  0  0  0  0  0  0  0
   44.2792  -93.2822    0.0350 H   0  0  0  0  0  0  0  0  0  0  0  0
   46.5634  -89.0732   -0.0302 H   0  0  0  0  0  0  0  0  0  0  0  0
   46.7366  -93.2246    0.0502 H   0  0  0  0  0  0  0  0  0  0  0  0
   44.2296  -89.1281   -0.0322 H   0  0  0  0  0  0  0  0  0  0  0  0
   38.0493  -92.7202   -0.0556 H   0  0  0  0  0  0  0  0  0  0  0  0
   35.4478  -90.2379    0.0470 H   0  0  0  0  0  0  0  0  0  0  0  0
   35.7782  -91.6359    0.8229 H   0  0  0  0  0  0  0  0  0  0  0  0
   35.7606  -91.5924   -0.8092 H   0  0  0  0  0  0  0  0  0  0  0  0
  1  2  2  0  0  0  0
  3  4  1  0  0  0  0
  1  6  1  0  0  0  0
  2  5  1  0  0  0  0
  5  3  2  0  0  0  0
  4  6  2  0  0  0  0
  5  7  1  0  0  0  0
  7  8  2  0  0  0  0
  9 10  1  0  0  0  0
  7 12  1  0  0  0  0
  8 11  1  0  0  0  0
 11  9  2  0  0  0  0
 10 12  2  0  0  0  0
  6 13  1  0  0  0  0
  9 14  1  0  0  0  0
 13 15  1  0  0  0  0
 15 16  1  0  0  0  0
 15 17  2  0  0  0  0
  1 18  1  0  0  0  0
  2 19  1  0  0  0  0
  3 20  1  0  0  0  0
  4 21  1  0  0  0  0
  8 22  1  0  0  0  0
 10 23  1  0  0  0  0
 11 24  1  0  0  0  0
 12 25  1  0  0  0  0
 13 26  1  0  0  0  0
 16 27  1  0  0  0  0
 16 28  1  0  0  0  0
 16 29  1  0  0  0  0
M  END
>  <Substance ID> (402)
402

>  <Mouse_Female_Canc> (402)
ND

>  <SAL> (402)
ND

>  <Rat_Male_Canc> (402)
3

>  <TD50_Rat> (402)
1.01

>  <TD50_Mouse> (402)
ND

>  <Rat_Female_Canc> (402)
ND

>  <Canc> (402)
3

>  <MolWeight> (402)
229.25

>  <Mouse_Male_Canc> (402)
ND

>  <Mouse_Male_NTP> (402)
ND

>  <ChemName> (402)
N-(4'-fluorobiphenyl-4yl)acetamide

>  <Rat_Male_NTP> (402)
ND

>  <Reference> (402)
CPDB

>  <Formula> (402)
C14H12FNO

>  <SMILES> (402)
CC(NC1=CC=C(C2=CC=C(F)C=C2)C=C1)=O

>  <Rat_Female_NTP> (402)
ND

>  <CAS> (402)
398-32-3

>  <Mouse_Female_NTP> (402)
ND

>  <Synonyms> (402)
4[-(4-Fluorophenyl)acetanilide; 4'-(4-fluorophenyl)-acetanilide; N-(4'-fluoro-4-biphenylyl)acetamide.

$$$$
403


 12 11  0  0  0  0  0  0  0  0999 V2000
    4.8963   -4.0519   -0.0013 N   0  0  0  0  0  0  0  0  0  0  0  0
    4.6020   -5.4919   -0.0024 C   0  0  0  0  0  0  0  0  0  0  0  0
    3.7969   -3.0765   -0.0012 C   0  0  0  0  0  0  0  0  0  0  0  0
    6.1903   -3.6207    0.0014 N   0  3  0  0  0  0  0  0  0  0  0  0
    7.1809   -4.4998    0.0026 O   0  5  0  0  0  0  0  0  0  0  0  0
    6.4262   -2.4690    0.0027 O   0  0  0  0  0  0  0  0  0  0  0  0
    5.4586   -6.0077   -0.0024 H   0  0  0  0  0  0  0  0  0  0  0  0
    4.0737   -5.7240   -0.8192 H   0  0  0  0  0  0  0  0  0  0  0  0
    4.0730   -5.7251    0.8136 H   0  0  0  0  0  0  0  0  0  0  0  0
    4.1728   -2.1499   -0.0004 H   0  0  0  0  0  0  0  0  0  0  0  0
    3.2341   -3.2081    0.8149 H   0  0  0  0  0  0  0  0  0  0  0  0
    3.2348   -3.2070   -0.8179 H   0  0  0  0  0  0  0  0  0  0  0  0
  1  2  1  0  0  0  0
  1  3  1  0  0  0  0
  1  4  1  0  0  0  0
  4  5  1  0  0  0  0
  4  6  2  0  0  0  0
  2  7  1  0  0  0  0
  2  8  1  0  0  0  0
  2  9  1  0  0  0  0
  3 10  1  0  0  0  0
  3 11  1  0  0  0  0
  3 12  1  0  0  0  0
M  END
>  <Substance ID> (403)
403

>  <Mouse_Female_Canc> (403)
ND

>  <SAL> (403)
3

>  <Rat_Male_Canc> (403)
3

>  <TD50_Rat> (403)
0.547

>  <TD50_Mouse> (403)
ND

>  <Rat_Female_Canc> (403)
3

>  <Canc> (403)
3

>  <MolWeight> (403)
90.08

>  <Mouse_Male_Canc> (403)
ND

>  <Mouse_Male_NTP> (403)
ND

>  <ChemName> (403)
Dimethylnitramine

>  <Rat_Male_NTP> (403)
ND

>  <Reference> (403)
CPDB

>  <Formula> (403)
C2H6N2O2

>  <SMILES> (403)
[O-][N+](=O)N(C)C

>  <Rat_Female_NTP> (403)
ND

>  <CAS> (403)
4164-28-7

>  <Mouse_Female_NTP> (403)
ND

>  <Synonyms> (403)
Methanamine, N-methyl-N-nitro-; N-Nitrodimethylamine.

$$$$
404


  0  0  0  0  0  0  0  0  0  0999 V2000
M  END
>  <Substance ID> (404)
404

>  <Mouse_Female_Canc> (404)
ND

>  <SAL> (404)
ND

>  <Rat_Male_Canc> (404)
3

>  <TD50_Rat> (404)
2310

>  <TD50_Mouse> (404)
ND

>  <Rat_Female_Canc> (404)
3

>  <Canc> (404)
3

>  <MolWeight> (404)
Unspecified 

>  <Mouse_Male_Canc> (404)
ND

>  <Mouse_Male_NTP> (404)
ND

>  <ChemName> (404)
Carrageenan Acide Degraded 

>  <Rat_Male_NTP> (404)
ND

>  <Reference> (404)
CPDB

>  <Formula> (404)
Unspecified 

>  <SMILES> (404)
Unspecified 

>  <Rat_Female_NTP> (404)
ND

>  <CAS> (404)
Unspecified 

>  <Mouse_Female_NTP> (404)
ND

>  <Synonyms> (404)
-

$$$$
405


 38 38  0  0  0  0  0  0  0  0999 V2000
    7.4044  -25.3165   -0.1512 C   0  0  0  0  0  0  0  0  0  0  0  0
    8.7242  -25.4796   -0.1455 C   0  0  0  0  0  0  0  0  0  0  0  0
    9.1064  -23.1088    0.1348 C   0  0  0  0  0  0  0  0  0  0  0  0
    7.6262  -22.9284    0.1436 C   0  0  0  0  0  0  0  0  0  0  0  0
    9.6196  -24.3359   -0.0036 C   0  0  0  0  0  0  0  0  0  0  0  0
    6.8217  -23.9841    0.0011 C   0  0  0  0  0  0  0  0  0  0  0  0
   11.1148  -24.6019   -0.0250 C   0  0  0  0  0  0  0  0  0  0  0  0
   12.0097  -23.3455    0.0243 C   0  0  0  0  0  0  0  0  0  0  0  0
   13.4756  -23.8580   -0.0117 C   0  0  0  0  0  0  0  0  0  0  0  0
   14.4733  -22.7346    0.0090 C   0  0  0  0  0  0  0  0  0  0  0  0
   14.0921  -21.5598    0.0293 O   0  0  0  0  0  0  0  0  0  0  0  0
   15.8378  -23.0247    0.0034 O   0  0  0  0  0  0  0  0  0  0  0  0
    5.4045  -23.8534   -0.0122 N   0  0  0  0  0  0  0  0  0  0  0  0
    4.8036  -22.5442    0.3108 C   0  0  0  0  0  0  0  0  0  0  0  0
    4.6136  -25.0486   -0.3752 C   0  0  0  0  0  0  0  0  0  0  0  0
    3.5210  -22.1986   -0.5045 C   0  0  0  0  0  0  0  0  0  0  0  0
    2.8980  -20.6308    0.0249 Cl  0  0  0  0  0  0  0  0  0  0  0  0
    3.4195  -25.3821    0.5680 C   0  0  0  0  0  0  0  0  0  0  0  0
    2.6287  -26.8533   -0.0201 Cl  0  0  0  0  0  0  0  0  0  0  0  0
    6.8064  -26.1105   -0.2603 H   0  0  0  0  0  0  0  0  0  0  0  0
    9.1082  -26.3981   -0.2397 H   0  0  0  0  0  0  0  0  0  0  0  0
    9.7108  -22.3181    0.2317 H   0  0  0  0  0  0  0  0  0  0  0  0
    7.2355  -22.0149    0.2566 H   0  0  0  0  0  0  0  0  0  0  0  0
   11.3383  -25.1714    0.7660 H   0  0  0  0  0  0  0  0  0  0  0  0
   11.3277  -25.0998   -0.8657 H   0  0  0  0  0  0  0  0  0  0  0  0
   11.8279  -22.7591   -0.7650 H   0  0  0  0  0  0  0  0  0  0  0  0
   11.8421  -22.8332    0.8665 H   0  0  0  0  0  0  0  0  0  0  0  0
   13.6318  -24.4414    0.7853 H   0  0  0  0  0  0  0  0  0  0  0  0
   13.6093  -24.3912   -0.8471 H   0  0  0  0  0  0  0  0  0  0  0  0
   16.3603  -22.1723    0.0192 H   0  0  0  0  0  0  0  0  0  0  0  0
    4.5654  -22.5418    1.2820 H   0  0  0  0  0  0  0  0  0  0  0  0
    5.4863  -21.8356    0.1327 H   0  0  0  0  0  0  0  0  0  0  0  0
    4.2478  -24.9068   -1.2950 H   0  0  0  0  0  0  0  0  0  0  0  0
    5.2307  -25.8355   -0.3791 H   0  0  0  0  0  0  0  0  0  0  0  0
    3.7451  -22.1575   -1.4782 H   0  0  0  0  0  0  0  0  0  0  0  0
    2.8277  -22.9027   -0.3509 H   0  0  0  0  0  0  0  0  0  0  0  0
    3.7561  -25.5295    1.4981 H   0  0  0  0  0  0  0  0  0  0  0  0
    2.7666  -24.6247    0.5654 H   0  0  0  0  0  0  0  0  0  0  0  0
  1  2  2  0  0  0  0
  3  4  1  0  0  0  0
  1  6  1  0  0  0  0
  2  5  1  0  0  0  0
  5  3  2  0  0  0  0
  4  6  2  0  0  0  0
  5  7  1  0  0  0  0
  7  8  1  0  0  0  0
  8  9  1  0  0  0  0
  9 10  1  0  0  0  0
 10 11  2  0  0  0  0
 10 12  1  0  0  0  0
  6 13  1  0  0  0  0
 13 14  1  0  0  0  0
 13 15  1  0  0  0  0
 14 16  1  0  0  0  0
 16 17  1  0  0  0  0
 15 18  1  0  0  0  0
 18 19  1  0  0  0  0
  1 20  1  0  0  0  0
  2 21  1  0  0  0  0
  3 22  1  0  0  0  0
  4 23  1  0  0  0  0
  7 24  1  0  0  0  0
  7 25  1  0  0  0  0
  8 26  1  0  0  0  0
  8 27  1  0  0  0  0
  9 28  1  0  0  0  0
  9 29  1  0  0  0  0
 12 30  1  0  0  0  0
 14 31  1  0  0  0  0
 14 32  1  0  0  0  0
 15 33  1  0  0  0  0
 15 34  1  0  0  0  0
 16 35  1  0  0  0  0
 16 36  1  0  0  0  0
 18 37  1  0  0  0  0
 18 38  1  0  0  0  0
M  END
>  <Substance ID> (405)
405

>  <Mouse_Female_Canc> (405)
3

>  <SAL> (405)
3

>  <Rat_Male_Canc> (405)
3

>  <TD50_Rat> (405)
0.896

>  <TD50_Mouse> (405)
0.133

>  <Rat_Female_Canc> (405)
3

>  <Canc> (405)
3

>  <MolWeight> (405)
304.22

>  <Mouse_Male_Canc> (405)
3

>  <Mouse_Male_NTP> (405)
ND

>  <ChemName> (405)
Chloroambucil

>  <Rat_Male_NTP> (405)
ND

>  <Reference> (405)
CPDB

>  <Formula> (405)
C14H19Cl2NO2

>  <SMILES> (405)
ClCCN(C1=CC=C(C=C1)CCCC(=O)O)CCCl

>  <Rat_Female_NTP> (405)
ND

>  <CAS> (405)
305-03-3

>  <Mouse_Female_NTP> (405)
ND

>  <Synonyms> (405)
4-(p-bis(2-chloroethyl)aminophenyl)butyric acid; 4-(p-bis(beta-chloroethyl)aminophenyl)butyric acid; 4-(p-(N,N-Di-2-chloroethyl)aminophenyl)butyric acid; 4-(p-N,N-Di-(beta-chloroethyl)aminophenyl)butyric acid; 4-[bis(2-chloroethyl)amino]benzenebutanoic acid; 4-[Bis(2-chloroethyl)aminophenyl]butyric acid; Ambochlorin; Amboclorin; cb 1348; Cb l348; Chloraminophen; Chlorobutin; Ecloril; Elcoril; Leukersan; Leukoran; Linfolizin; Linfolysin; N,N-Di-(2-chloroethyl)-gamma-(p-aminophenyl)butyric acid; Phenylbutyric acid nitrogen mustard; gamma-(p-bis(2-chloroethyl)aminophenyl)butyric acid.

$$$$
406


 18 18  0  0  0  0  0  0  0  0999 V2000
    3.2782  -32.3981    0.5212 C   0  0  0  0  0  0  0  0  0  0  0  0
    3.1526  -33.9880    0.1292 C   0  0  0  0  0  0  0  0  0  0  0  0
    4.5161  -34.7115   -0.4267 C   0  0  0  0  0  0  0  0  0  0  0  0
    5.4588  -34.1670    0.4265 C   0  0  0  0  0  0  0  0  0  0  0  0
    5.5131  -32.6244   -0.1293 C   0  0  0  0  0  0  0  0  0  0  0  0
    4.0730  -31.9389   -0.5212 C   0  0  0  0  0  0  0  0  0  0  0  0
    4.3222  -30.1968   -0.6581 Cl  0  0  0  0  0  0  0  0  0  0  0  0
    6.3479  -31.7579    1.1662 Cl  0  0  0  0  0  0  0  0  0  0  0  0
    4.2651  -36.4571   -0.3603 Cl  0  0  0  0  0  0  0  0  0  0  0  0
    1.6446  -31.7437    0.6582 Cl  0  0  0  0  0  0  0  0  0  0  0  0
    1.9849  -34.2782   -1.1663 Cl  0  0  0  0  0  0  0  0  0  0  0  0
    7.0963  -34.8216    0.3599 Cl  0  0  0  0  0  0  0  0  0  0  0  0
    3.6904  -32.1422    1.3956 H   0  0  0  0  0  0  0  0  0  0  0  0
    2.8902  -34.3735    1.0138 H   0  0  0  0  0  0  0  0  0  0  0  0
    4.7948  -34.5640   -1.3757 H   0  0  0  0  0  0  0  0  0  0  0  0
    5.1918  -34.3348    1.3755 H   0  0  0  0  0  0  0  0  0  0  0  0
    5.9781  -32.5895   -1.0139 H   0  0  0  0  0  0  0  0  0  0  0  0
    3.6454  -32.1681   -1.3956 H   0  0  0  0  0  0  0  0  0  0  0  0
  1  2  1  0  0  0  0
  1  6  1  0  0  0  0
  2  3  1  0  0  0  0
  3  4  1  0  0  0  0
  4  5  1  0  0  0  0
  5  6  1  0  0  0  0
  6  7  1  1  0  0  0
  5  8  1  1  0  0  0
  3  9  1  1  0  0  0
  1 10  1  6  0  0  0
  2 11  1  6  0  0  0
  4 12  1  6  0  0  0
  1 13  1  0  0  0  0
  2 14  1  0  0  0  0
  3 15  1  0  0  0  0
  4 16  1  0  0  0  0
  5 17  1  0  0  0  0
  6 18  1  0  0  0  0
M  END
>  <Substance ID> (406)
406

>  <Mouse_Female_Canc> (406)
ND

>  <SAL> (406)
1

>  <Rat_Male_Canc> (406)
3

>  <TD50_Rat> (406)
11.2

>  <TD50_Mouse> (406)
6.62

>  <Rat_Female_Canc> (406)
ND

>  <Canc> (406)
3

>  <MolWeight> (406)
290.83

>  <Mouse_Male_Canc> (406)
3

>  <Mouse_Male_NTP> (406)
ND

>  <ChemName> (406)
alpha-1,2,3,4,5,6-Hexachlorocyclohexane

>  <Rat_Male_NTP> (406)
ND

>  <Reference> (406)
CPDB

>  <Formula> (406)
C6H6Cl6

>  <SMILES> (406)
Cl[C@H]1[C@@H](Cl)[C@H](Cl)[C@H](Cl)[C@@H](Cl)[C@@H]1Cl

>  <Rat_Female_NTP> (406)
ND

>  <CAS> (406)
319-84-6

>  <Mouse_Female_NTP> (406)
ND

>  <Synonyms> (406)
1,2,3,4,5,6-hexachlorocyclohexane, alpha isomer; (1alpha,2alpha,3beta,4alpha,5beta,6beta)-1,2,3,4,5,6-hexachlorocyclohexane; 1a,2a,3b,4a,5b,6b-hexachlorocyclohexane; alpha-benzene hexachloride; alpha-BHC; alpha-HCH; alpha-Hexachlorocyclohexane; alpha-Hexachlorocyclohexane; alpha-Hexachlorocyclohexanes; alpha-lindane; benzene-trans-hexachloride; HCH (alpha); Hexachlorocyclohexane-Alpha.

$$$$
407


  9  8  0  0  0  0  0  0  0  0999 V2000
    2.7952  -42.4562    0.0006 N   0  0  0  0  0  0  0  0  0  0  0  0
    1.6997  -41.4759   -0.0005 C   0  0  0  0  0  0  0  0  0  0  0  0
    4.0235  -41.7844   -0.0000 N   0  0  0  0  0  0  0  0  0  0  0  0
    2.7290  -43.0287    0.8178 H   0  0  0  0  0  0  0  0  0  0  0  0
    0.8224  -41.9557   -0.0001 H   0  0  0  0  0  0  0  0  0  0  0  0
    1.7653  -40.9029   -0.8175 H   0  0  0  0  0  0  0  0  0  0  0  0
    1.7652  -40.9013    0.8153 H   0  0  0  0  0  0  0  0  0  0  0  0
    4.7686  -42.4512    0.0007 H   0  0  0  0  0  0  0  0  0  0  0  0
    4.0901  -41.2099    0.8158 H   0  0  0  0  0  0  0  0  0  0  0  0
  1  2  1  0  0  0  0
  1  3  1  0  0  0  0
  1  4  1  0  0  0  0  
  2  5  1  0  0  0  0
  2  6  1  0  0  0  0
  2  7  1  0  0  0  0
  3  8  1  0  0  0  0
  3  9  1  0  0  0  0
M  END
>  <Substance ID> (407)
407

>  <Mouse_Female_Canc> (407)
3

>  <SAL> (407)
ND

>  <Rat_Male_Canc> (407)
ND

>  <TD50_Rat> (407)
ND

>  <TD50_Mouse> (407)
2.72

>  <Rat_Female_Canc> (407)
ND

>  <Canc> (407)
3

>  <MolWeight> (407)
46.07

>  <Mouse_Male_Canc> (407)
3

>  <Mouse_Male_NTP> (407)
ND

>  <ChemName> (407)
Methylhydrazine sulfate

>  <Rat_Male_NTP> (407)
ND

>  <Reference> (407)
CPDB

>  <Formula> (407)
CH6N2

>  <SMILES> (407)
N(C)N

>  <Rat_Female_NTP> (407)
ND

>  <CAS> (407)
302-15-8

>  <Mouse_Female_NTP> (407)
ND

>  <Synonyms> (407)
Hydrazine, methyl-, sulfate (1:1).

$$$$
408


 11 10  0  0  0  0  0  0  0  0999 V2000
    1.9779  -47.6200   -0.0005 C   0  0  0  0  0  0  0  0  0  0  0  0
    2.8295  -48.8554    0.0012 C   0  0  0  0  0  0  0  0  0  0  0  0
    4.1560  -48.7478   -0.0010 C   0  0  0  0  0  0  0  0  0  0  0  0
    4.9863  -49.9508    0.0007 C   0  0  0  0  0  0  0  0  0  0  0  0
    6.2181  -49.8504   -0.0009 O   0  0  0  0  0  0  0  0  0  0  0  0
    1.0124  -47.8802    0.0015 H   0  0  0  0  0  0  0  0  0  0  0  0
    2.1753  -47.0797   -0.8185 H   0  0  0  0  0  0  0  0  0  0  0  0
    2.1777  -47.0758    0.8143 H   0  0  0  0  0  0  0  0  0  0  0  0
    2.4007  -49.7588    0.0040 H   0  0  0  0  0  0  0  0  0  0  0  0
    4.5846  -47.8443   -0.0039 H   0  0  0  0  0  0  0  0  0  0  0  0
    4.5579  -50.8544    0.0032 H   0  0  0  0  0  0  0  0  0  0  0  0
  1  2  1  0  0  0  0
  2  3  2  0  0  0  0
  3  4  1  0  0  0  0
  4  5  2  0  0  0  0
  1  6  1  0  0  0  0
  1  7  1  0  0  0  0
  1  8  1  0  0  0  0
  2  9  1  0  0  0  0
  3 10  1  0  0  0  0
  4 11  1  0  0  0  0
M  END
>  <Substance ID> (408)
408

>  <Mouse_Female_Canc> (408)
ND

>  <SAL> (408)
3

>  <Rat_Male_Canc> (408)
3

>  <TD50_Rat> (408)
4.2

>  <TD50_Mouse> (408)
ND

>  <Rat_Female_Canc> (408)
ND

>  <Canc> (408)
3

>  <MolWeight> (408)
70.09

>  <Mouse_Male_Canc> (408)
ND

>  <Mouse_Male_NTP> (408)
ND

>  <ChemName> (408)
Crotonaldehyde

>  <Rat_Male_NTP> (408)
ND

>  <Reference> (408)
CPDB

>  <Formula> (408)
C4H6O

>  <SMILES> (408)
CC=CC=O

>  <Rat_Female_NTP> (408)
ND

>  <CAS> (408)
123-73-9

>  <Mouse_Female_NTP> (408)
ND

>  <Synonyms> (408)
(E)-2-Butenal; (E)-Crotonaldehyde; trans-2-Butenal; trans-crotonaldehyde.

$$$$
409


 30 32  0  0  0  0  0  0  0  0999 V2000
    2.7399  -51.9356    0.0382 C   0  0  0  0  0  0  0  0  0  0  0  0
    2.4135  -53.2301    0.1676 C   0  0  0  0  0  0  0  0  0  0  0  0
    3.4737  -54.2704    0.2158 C   0  0  0  0  0  0  0  0  0  0  0  0
    4.1559  -51.5425   -0.0581 C   0  0  0  0  0  0  0  0  0  0  0  0
    5.0593  -52.5102   -0.0105 C   0  0  0  0  0  0  0  0  0  0  0  0
    4.7363  -53.8650    0.1261 C   0  0  0  0  0  0  0  0  0  0  0  0
    6.0002  -54.7327    0.1558 C   0  0  0  0  0  0  0  0  0  0  0  0
    6.4556  -52.3902   -0.0762 C   0  0  0  0  0  0  0  0  0  0  0  0
    7.0297  -53.5772    0.0153 C   0  0  0  0  0  0  0  0  0  0  0  0
    9.2131  -52.5751   -0.1390 C   0  0  0  0  0  0  0  0  0  0  0  0
    8.5254  -51.2638   -0.2506 C   0  0  0  0  0  0  0  0  0  0  0  0
    8.4953  -53.7049   -0.0131 C   0  0  0  0  0  0  0  0  0  0  0  0
    7.1986  -51.1757   -0.2169 C   0  0  0  0  0  0  0  0  0  0  0  0
   10.6234  -52.5462   -0.1666 N   0  0  0  0  0  0  0  0  0  0  0  0
   11.4907  -53.6266    0.0398 C   0  0  0  0  0  0  0  0  0  0  0  0
   11.0807  -54.7657    0.2918 O   0  0  0  0  0  0  0  0  0  0  0  0
   12.9641  -53.3514   -0.0371 C   0  0  0  0  0  0  0  0  0  0  0  0
   13.1884  -52.2573   -0.8501 F   0  0  0  0  0  0  0  0  0  0  0  0
   13.4037  -53.0319    1.2312 F   0  0  0  0  0  0  0  0  0  0  0  0
   13.6514  -54.4670   -0.4602 F   0  0  0  0  0  0  0  0  0  0  0  0
    2.0232  -51.2389    0.0073 H   0  0  0  0  0  0  0  0  0  0  0  0
    1.4518  -53.4966    0.2318 H   0  0  0  0  0  0  0  0  0  0  0  0
    3.2456  -55.2393    0.3121 H   0  0  0  0  0  0  0  0  0  0  0  0
    4.4245  -50.5842   -0.1556 H   0  0  0  0  0  0  0  0  0  0  0  0
    6.1010  -55.2316    1.0166 H   0  0  0  0  0  0  0  0  0  0  0  0
    6.0405  -55.3754   -0.6092 H   0  0  0  0  0  0  0  0  0  0  0  0
    9.0700  -50.4314   -0.3529 H   0  0  0  0  0  0  0  0  0  0  0  0
    8.9402  -54.5976    0.0585 H   0  0  0  0  0  0  0  0  0  0  0  0
    6.7366  -50.2916   -0.2874 H   0  0  0  0  0  0  0  0  0  0  0  0
   11.0489  -51.6606   -0.3533 H   0  0  0  0  0  0  0  0  0  0  0  0
  1  2  2  0  0  0  0
  1  4  1  0  0  0  0
  2  3  1  0  0  0  0
  3  6  2  0  0  0  0
  5  4  2  0  0  0  0
  5  6  1  0  0  0  0
  6  7  1  0  0  0  0
  7  9  1  0  0  0  0
  5  8  1  0  0  0  0
  8  9  2  0  0  0  0
 10 11  1  0  0  0  0
  8 13  1  0  0  0  0
  9 12  1  0  0  0  0
 12 10  2  0  0  0  0
 11 13  2  0  0  0  0
 10 14  1  0  0  0  0
 14 15  1  0  0  0  0
 15 16  2  0  0  0  0
 15 17  1  0  0  0  0
 17 18  1  0  0  0  0
 17 19  1  0  0  0  0
 17 20  1  0  0  0  0
  1 21  1  0  0  0  0
  2 22  1  0  0  0  0
  3 23  1  0  0  0  0
  4 24  1  0  0  0  0
  7 25  1  0  0  0  0
  7 26  1  0  0  0  0
 11 27  1  0  0  0  0
 12 28  1  0  0  0  0
 13 29  1  0  0  0  0
 14 30  1  0  0  0  0
M  END
>  <Substance ID> (409)
409

>  <Mouse_Female_Canc> (409)
ND

>  <SAL> (409)
ND

>  <Rat_Male_Canc> (409)
ND

>  <TD50_Rat> (409)
1.62

>  <TD50_Mouse> (409)
ND

>  <Rat_Female_Canc> (409)
3

>  <Canc> (409)
3

>  <MolWeight> (409)
277.25

>  <Mouse_Male_Canc> (409)
ND

>  <Mouse_Male_NTP> (409)
ND

>  <ChemName> (409)
N-(2-fluorenyl)-2,2,2-trifluoroacetamide

>  <Rat_Male_NTP> (409)
ND

>  <Reference> (409)
CPDB

>  <Formula> (409)
C15H10F3NO

>  <SMILES> (409)
FC(F)(F)C(=O)Nc3ccc2c1ccccc1Cc2c3

>  <Rat_Female_NTP> (409)
ND

>  <CAS> (409)
363-17-7

>  <Mouse_Female_NTP> (409)
ND

>  <Synonyms> (409)
-

$$$$
410
 

 32 35  0  0  0  0  0  0  0  0999 V2000
    1.7425  -67.3822   -0.0000 C   0  0  0  0  0  0  0  0  0  0  0  0
    1.7285  -68.7124   -0.0001 C   0  0  0  0  0  0  0  0  0  0  0  0
    2.9887  -69.4537   -0.0004 C   0  0  0  0  0  0  0  0  0  0  0  0
    3.0176  -66.6703   -0.0004 C   0  0  0  0  0  0  0  0  0  0  0  0
    4.1631  -67.3503   -0.0003 C   0  0  0  0  0  0  0  0  0  0  0  0
    4.1516  -68.8027    0.0001 C   0  0  0  0  0  0  0  0  0  0  0  0
    5.4362  -69.5926   -0.0024 C   0  0  0  0  0  0  0  0  0  0  0  0
    5.4197  -66.6398   -0.0009 C   0  0  0  0  0  0  0  0  0  0  0  0
    6.6564  -67.3521   -0.0016 N   0  0  0  0  0  0  0  0  0  0  0  0
    6.6799  -68.7668    0.0016 N   0  0  0  0  0  0  0  0  0  0  0  0
    7.9260  -69.4472    0.0004 C   0  0  0  0  0  0  0  0  0  0  0  0
    7.9103  -66.5583    0.0031 C   0  0  0  0  0  0  0  0  0  0  0  0
    9.1869  -67.3748   -0.0001 C   0  0  0  0  0  0  0  0  0  0  0  0
    9.1758  -68.7084   -0.0004 C   0  0  0  0  0  0  0  0  0  0  0  0
   11.6021  -68.7990   -0.0009 C   0  0  0  0  0  0  0  0  0  0  0  0
   11.6175  -67.3414   -0.0004 C   0  0  0  0  0  0  0  0  0  0  0  0
   10.4416  -69.4496   -0.0005 C   0  0  0  0  0  0  0  0  0  0  0  0
   10.4714  -66.6646   -0.0002 C   0  0  0  0  0  0  0  0  0  0  0  0
    5.4250  -65.4046   -0.0000 O   0  0  0  0  0  0  0  0  0  0  0  0
    7.9475  -70.6826    0.0003 O   0  0  0  0  0  0  0  0  0  0  0  0
    0.8827  -66.8715    0.0003 H   0  0  0  0  0  0  0  0  0  0  0  0
    0.8578  -69.2044   -0.0001 H   0  0  0  0  0  0  0  0  0  0  0  0
    2.9781  -70.4536   -0.0010 H   0  0  0  0  0  0  0  0  0  0  0  0
    3.0308  -65.6704   -0.0008 H   0  0  0  0  0  0  0  0  0  0  0  0
    5.4458  -70.1729    0.8120 H   0  0  0  0  0  0  0  0  0  0  0  0
    5.4467  -70.1664   -0.8213 H   0  0  0  0  0  0  0  0  0  0  0  0
    7.9121  -65.9772   -0.8107 H   0  0  0  0  0  0  0  0  0  0  0  0
    7.9111  -65.9851    0.8226 H   0  0  0  0  0  0  0  0  0  0  0  0
   12.4623  -69.3091   -0.0015 H   0  0  0  0  0  0  0  0  0  0  0  0
   12.4886  -66.8503   -0.0002 H   0  0  0  0  0  0  0  0  0  0  0  0
   10.4322  -70.4496   -0.0002 H   0  0  0  0  0  0  0  0  0  0  0  0
   10.4855  -65.6647   -0.0002 H   0  0  0  0  0  0  0  0  0  0  0  0
  1  2  2  0  0  0  0
  1  4  1  0  0  0  0
  2  3  1  0  0  0  0
  3  6  2  0  0  0  0
  5  4  2  0  0  0  0
  5  6  1  0  0  0  0
  5  8  1  0  0  0  0
  6  7  1  0  0  0  0
  7 10  1  0  0  0  0
  9  8  1  0  0  0  0
  9 10  1  0  0  0  0
  9 12  1  0  0  0  0
 10 11  1  0  0  0  0
 11 14  1  0  0  0  0
 13 12  1  0  0  0  0
 13 14  2  0  0  0  0
 15 16  1  0  0  0  0
 13 18  1  0  0  0  0
 14 17  1  0  0  0  0
 17 15  2  0  0  0  0
 16 18  2  0  0  0  0
  8 19  2  0  0  0  0
 11 20  2  0  0  0  0
  1 21  1  0  0  0  0
  2 22  1  0  0  0  0
  3 23  1  0  0  0  0
  4 24  1  0  0  0  0
  7 25  1  0  0  0  0
  7 26  1  0  0  0  0
 12 27  1  0  0  0  0
 12 28  1  0  0  0  0
 15 29  1  0  0  0  0
 16 30  1  0  0  0  0
 17 31  1  0  0  0  0
 18 32  1  0  0  0  0
M  END
>  <Substance ID> (410)
410

>  <Mouse_Female_Canc> (410)
3

>  <SAL> (410)
1

>  <Rat_Male_Canc> (410)
ND

>  <TD50_Rat> (410)
ND

>  <TD50_Mouse> (410)
865

>  <Rat_Female_Canc> (410)
ND

>  <Canc> (410)
3

>  <MolWeight> (410)
264.28

>  <Mouse_Male_Canc> (410)
3

>  <Mouse_Male_NTP> (410)
ND

>  <ChemName> (410)
Diftalone

>  <Rat_Male_NTP> (410)
ND

>  <Reference> (410)
CPDB

>  <Formula> (410)
C16H12N2O2

>  <SMILES> (410)
O=C3c1c(cccc1)CN4C(=O)c2c(cccc2)CN34

>  <Rat_Female_NTP> (410)
ND

>  <CAS> (410)
21626-89-1

>  <Mouse_Female_NTP> (410)
ND

>  <Synonyms> (410)
-

$$$$
411


 91 95  0  0  0  0  0  0  0  0999 V2000
   15.0271  -77.7265   -0.0214 C   0  0  0  0  0  0  0  0  0  0  0  0
   16.1366  -77.0183   -0.0174 C   0  0  0  0  0  0  0  0  0  0  0  0
   15.0650  -74.8549   -0.0270 C   0  0  0  0  0  0  0  0  0  0  0  0
   13.8095  -75.5440   -0.0381 C   0  0  0  0  0  0  0  0  0  0  0  0
   16.1916  -75.5603   -0.0220 C   0  0  0  0  0  0  0  0  0  0  0  0
   13.7729  -76.8742   -0.0367 C   0  0  0  0  0  0  0  0  0  0  0  0
   23.2923  -80.5969    0.0213 C   0  0  0  0  0  0  0  0  0  0  0  0
   23.9960  -81.7090    0.3004 C   0  0  0  0  0  0  0  0  0  0  0  0
   26.1336  -80.5465    0.0090 C   0  0  0  0  0  0  0  0  0  0  0  0
   25.3789  -79.3385   -0.2862 C   0  0  0  0  0  0  0  0  0  0  0  0
   25.4960  -81.6789    0.2894 C   0  0  0  0  0  0  0  0  0  0  0  0
   24.0463  -79.3607   -0.2802 C   0  0  0  0  0  0  0  0  0  0  0  0
   16.5435  -80.1621    0.0552 C   0  0  0  0  0  0  0  0  0  0  0  0
   16.7695  -81.5033    0.1337 C   0  0  0  0  0  0  0  0  0  0  0  0
   19.2732  -81.2043    0.1076 C   0  0  0  0  0  0  0  0  0  0  0  0
   19.0122  -79.8104    0.0225 C   0  0  0  0  0  0  0  0  0  0  0  0
   18.2230  -82.0392    0.1627 C   0  0  0  0  0  0  0  0  0  0  0  0
   17.7745  -79.3519   -0.0000 C   0  0  0  0  0  0  0  0  0  0  0  0
   11.1673  -81.3642    0.0568 C   0  0  0  0  0  0  0  0  0  0  0  0
   12.4226  -82.2114    0.1090 C   0  0  0  0  0  0  0  0  0  0  0  0
   13.6524  -81.6449    0.0862 C   0  0  0  0  0  0  0  0  0  0  0  0
   13.8360  -80.1296    0.0241 C   0  0  0  0  0  0  0  0  0  0  0  0
   12.5433  -79.4176   -0.0286 C   0  0  0  0  0  0  0  0  0  0  0  0
   11.3460  -79.9567   -0.0184 C   0  0  0  0  0  0  0  0  0  0  0  0
    4.4551  -80.9816    0.0893 C   0  0  0  0  0  0  0  0  0  0  0  0
    5.1516  -82.0919    0.3217 C   0  0  0  0  0  0  0  0  0  0  0  0
    7.2907  -80.9107    0.0434 C   0  0  0  0  0  0  0  0  0  0  0  0
    6.4807  -79.6987   -0.2062 C   0  0  0  0  0  0  0  0  0  0  0  0
    6.6452  -82.0548    0.3033 C   0  0  0  0  0  0  0  0  0  0  0  0
    5.1491  -79.7336   -0.1826 C   0  0  0  0  0  0  0  0  0  0  0  0
    8.8610  -80.7276   -0.0224 C   0  0  0  0  0  0  0  0  0  0  0  0
    9.9523  -81.8062    0.0671 N   0  3  0  0  0  0  0  0  0  0  0  0
   15.0211  -79.4375    0.0176 C   0  0  0  0  0  0  0  0  0  0  0  0
   20.6760  -81.6094    0.1167 N   0  0  0  0  0  0  0  0  0  0  0  0
   21.7029  -80.4794   -0.0154 C   0  0  0  0  0  0  0  0  0  0  0  0
   21.0075  -83.0196    0.2194 C   0  0  0  0  0  0  0  0  0  0  0  0
   21.5095  -83.5647   -1.1404 C   0  0  0  0  0  0  0  0  0  0  0  0
    9.7026  -83.2374    0.1477 C   0  0  0  0  0  0  0  0  0  0  0  0
    9.1825  -83.7874   -1.2019 C   0  0  0  0  0  0  0  0  0  0  0  0
   15.1114  -73.4597   -0.0181 N   0  0  0  0  0  0  0  0  0  0  0  0
   16.3726  -72.7759   -0.0038 C   0  0  0  0  0  0  0  0  0  0  0  0
   13.8888  -72.7057   -0.0169 C   0  0  0  0  0  0  0  0  0  0  0  0
   26.4438  -83.1612    0.6486 S   0  0  0  0  0  0  0  0  0  0  0  0
   25.2801  -83.8563   -0.3744 O   0  0  0  0  0  0  0  0  0  0  0  0
   27.3749  -83.9916   -0.2159 O   0  0  0  0  0  0  0  0  0  0  0  0
   27.5872  -82.1934    0.3987 O   0  0  0  0  0  0  0  0  0  0  0  0
    4.3015  -83.6321    0.6300 S   0  0  0  0  0  0  0  0  0  0  0  0
    2.9514  -82.6419    0.3127 O   0  5  0  0  0  0  0  0  0  0  0  0
    3.5569  -84.5390   -0.3325 O   0  0  0  0  0  0  0  0  0  0  0  0
    5.5063  -84.0763   -0.1878 O   0  0  0  0  0  0  0  0  0  0  0  0
   17.0043  -77.5154   -0.0108 H   0  0  0  0  0  0  0  0  0  0  0  0
   12.9561  -75.0229   -0.0469 H   0  0  0  0  0  0  0  0  0  0  0  0
   17.0754  -75.0924   -0.0214 H   0  0  0  0  0  0  0  0  0  0  0  0
   12.8829  -77.3300   -0.0461 H   0  0  0  0  0  0  0  0  0  0  0  0
   23.5169  -82.5599    0.5161 H   0  0  0  0  0  0  0  0  0  0  0  0
   27.1334  -80.5252    0.0009 H   0  0  0  0  0  0  0  0  0  0  0  0
   25.8618  -78.4880   -0.4945 H   0  0  0  0  0  0  0  0  0  0  0  0
   23.5438  -78.5207   -0.4847 H   0  0  0  0  0  0  0  0  0  0  0  0
   15.9994  -82.1401    0.1725 H   0  0  0  0  0  0  0  0  0  0  0  0
   19.7769  -79.1675   -0.0210 H   0  0  0  0  0  0  0  0  0  0  0  0
   18.3818  -83.0246    0.2235 H   0  0  0  0  0  0  0  0  0  0  0  0
   17.6608  -78.3602   -0.0603 H   0  0  0  0  0  0  0  0  0  0  0  0
   12.3414  -83.2068    0.1612 H   0  0  0  0  0  0  0  0  0  0  0  0
   14.4607  -82.2333    0.1107 H   0  0  0  0  0  0  0  0  0  0  0  0
   12.5841  -78.4196   -0.0772 H   0  0  0  0  0  0  0  0  0  0  0  0
   10.5422  -79.3635   -0.0645 H   0  0  0  0  0  0  0  0  0  0  0  0
    3.4555  -81.0060    0.1017 H   0  0  0  0  0  0  0  0  0  0  0  0
    6.9432  -78.8329   -0.3971 H   0  0  0  0  0  0  0  0  0  0  0  0
    7.1657  -82.8889    0.4862 H   0  0  0  0  0  0  0  0  0  0  0  0
    4.6254  -78.8988   -0.3524 H   0  0  0  0  0  0  0  0  0  0  0  0
    9.0248  -80.2766   -0.8997 H   0  0  0  0  0  0  0  0  0  0  0  0
    9.0715  -80.0947    0.7227 H   0  0  0  0  0  0  0  0  0  0  0  0
   21.4997  -80.0529   -0.8968 H   0  0  0  0  0  0  0  0  0  0  0  0
   21.4778  -79.8436    0.7229 H   0  0  0  0  0  0  0  0  0  0  0  0
   21.7250  -83.1388    0.9057 H   0  0  0  0  0  0  0  0  0  0  0  0
   20.1927  -83.5289    0.4965 H   0  0  0  0  0  0  0  0  0  0  0  0
   21.7322  -84.5353   -1.0492 H   0  0  0  0  0  0  0  0  0  0  0  0
   22.3263  -83.0607   -1.4210 H   0  0  0  0  0  0  0  0  0  0  0  0
   20.7945  -83.4507   -1.8302 H   0  0  0  0  0  0  0  0  0  0  0  0
   10.5542  -83.7049    0.3846 H   0  0  0  0  0  0  0  0  0  0  0  0
    9.0185  -83.4104    0.8563 H   0  0  0  0  0  0  0  0  0  0  0  0
    9.0189  -84.7706   -1.1209 H   0  0  0  0  0  0  0  0  0  0  0  0
    9.8637  -83.6211   -1.9149 H   0  0  0  0  0  0  0  0  0  0  0  0
    8.3285  -83.3266   -1.4433 H   0  0  0  0  0  0  0  0  0  0  0  0
   16.2167  -71.7881    0.0010 H   0  0  0  0  0  0  0  0  0  0  0  0
   16.8973  -73.0261   -0.8175 H   0  0  0  0  0  0  0  0  0  0  0  0
   16.8841  -73.0360    0.8152 H   0  0  0  0  0  0  0  0  0  0  0  0
   14.0994  -71.7282   -0.0102 H   0  0  0  0  0  0  0  0  0  0  0  0
   13.3549  -72.9368    0.7965 H   0  0  0  0  0  0  0  0  0  0  0  0
   13.3596  -72.9265   -0.8363 H   0  0  0  0  0  0  0  0  0  0  0  0
   24.3711  -83.5288   -0.1170 H   0  0  0  0  0  0  0  0  0  0  0  0
  1  2  2  0  0  0  0
  3  4  1  0  0  0  0
  1  6  1  0  0  0  0
  2  5  1  0  0  0  0
  5  3  2  0  0  0  0
  4  6  2  0  0  0  0
  7  8  2  0  0  0  0
  9 10  1  0  0  0  0
  7 12  1  0  0  0  0
  8 11  1  0  0  0  0
 11  9  2  0  0  0  0
 10 12  2  0  0  0  0
 13 14  2  0  0  0  0
 15 16  1  0  0  0  0
 13 18  1  0  0  0  0
 14 17  1  0  0  0  0
 17 15  2  0  0  0  0
 16 18  2  0  0  0  0
 19 20  1  0  0  0  0
 19 24  1  0  0  0  0
 20 21  2  0  0  0  0
 21 22  1  0  0  0  0
 22 23  1  0  0  0  0
 23 24  2  0  0  0  0
 25 26  2  0  0  0  0
 27 28  1  0  0  0  0
 25 30  1  0  0  0  0
 26 29  1  0  0  0  0
 29 27  2  0  0  0  0
 28 30  2  0  0  0  0
 27 31  1  0  0  0  0
 31 32  1  0  0  0  0
 32 19  2  0  0  0  0
 22 33  2  0  0  0  0
 33 13  1  0  0  0  0
 33  1  1  0  0  0  0
 15 34  1  0  0  0  0
 34 35  1  0  0  0  0
 35  7  1  0  0  0  0
 34 36  1  0  0  0  0
 36 37  1  0  0  0  0
 32 38  1  0  0  0  0
 38 39  1  0  0  0  0
  3 40  1  0  0  0  0
 40 41  1  0  0  0  0
 40 42  1  0  0  0  0
 43 44  1  0  0  0  0
 43 45  2  0  0  0  0
 43 46  2  0  0  0  0
 11 43  1  0  0  0  0
 47 48  1  0  0  0  0
 47 49  2  0  0  0  0
 47 50  2  0  0  0  0
 26 47  1  0  0  0  0
  2 51  1  0  0  0  0
  4 52  1  0  0  0  0
  5 53  1  0  0  0  0
  6 54  1  0  0  0  0
  8 55  1  0  0  0  0
  9 56  1  0  0  0  0
 10 57  1  0  0  0  0
 12 58  1  0  0  0  0
 14 59  1  0  0  0  0
 16 60  1  0  0  0  0
 17 61  1  0  0  0  0
 18 62  1  0  0  0  0
 20 63  1  0  0  0  0
 21 64  1  0  0  0  0
 23 65  1  0  0  0  0
 24 66  1  0  0  0  0
 25 67  1  0  0  0  0
 28 68  1  0  0  0  0
 29 69  1  0  0  0  0
 30 70  1  0  0  0  0
 31 71  1  0  0  0  0
 31 72  1  0  0  0  0
 35 73  1  0  0  0  0
 35 74  1  0  0  0  0
 36 75  1  0  0  0  0
 36 76  1  0  0  0  0
 37 77  1  0  0  0  0
 37 78  1  0  0  0  0
 37 79  1  0  0  0  0
 38 80  1  0  0  0  0
 38 81  1  0  0  0  0
 39 82  1  0  0  0  0
 39 83  1  0  0  0  0
 39 84  1  0  0  0  0
 41 85  1  0  0  0  0
 41 86  1  0  0  0  0
 41 87  1  0  0  0  0
 42 88  1  0  0  0  0
 42 89  1  0  0  0  0
 42 90  1  0  0  0  0
 44 91  1  0  0  0  0
M  END
>  <Substance ID> (411)
411

>  <Mouse_Female_Canc> (411)
1

>  <SAL> (411)
3

>  <Rat_Male_Canc> (411)
1

>  <TD50_Rat> (411)
612

>  <TD50_Mouse> (411)
NP

>  <Rat_Female_Canc> (411)
3

>  <Canc> (411)
3

>  <MolWeight> (411)
734.90

>  <Mouse_Male_Canc> (411)
1

>  <Mouse_Male_NTP> (411)
ND

>  <ChemName> (411)
C.I. acid violet 49 (sodium salt)

>  <Rat_Male_NTP> (411)
ND

>  <Reference> (411)
CPDB

>  <Formula> (411)
C39H41N3O6S2Na

>  <SMILES> (411)
O=S(=O)(O)c1cccc(c1)CN(c2ccc(cc2)C(=C\4/C=C\C(=[N+](\CC)Cc3cccc(c3)S([O-])(=O)=O)/C=C/4)/c5ccc(N(C)C)cc5)CC.[Na+]

>  <Rat_Female_NTP> (411)
ND

>  <CAS> (411)
1694-09-3

>  <Mouse_Female_NTP> (411)
ND

>  <Synonyms> (411)
11386 violet; acid fast violet 5bn; acid violet; acid violet 49; acid violet 4bnp; acid violet 4bns; acid violet 5b; acid violet 5bn; Acid Violet 6B; acid violet s; acilan violet s4bn; a.f. violet no 1; aizen acid violet 5bh; aizen food violet no. 1; atlantic acid violet 4bns; benzyl violet; Benzyl violet 3B; BENZYL VIOLET 48; Benzyl violet 4B; dispersed violet 12197; calcocid violet 4bns; C.I. 42640; C.I. acid violet 49; C.I. food violet 2; cogilor violet 411.12; coomassie violet; d and c violet no. 1; eriosin violet 3b; fast acid violet 5bn; fd & c violet 1; FD & C violet no. 1; FD & C VIOLET #1 (BENZYL VIOLET 48); food violet 2; formyl violet s4bn; hidacid wool violet 5b; intracid violet 4bns; kiton violet 4bns; orient water violet 1; pergacid violet 2b; pergacid violet 3b; polaxal violet 6b; serva violet 49; benzenemethanaminium, N-(4-((4-(dimethylamino)phenyl)(4-(ethyl((3-sulfophenyl)methyl)amino)phenyl)methylene)-2,5-cyclohexadien-1-ylidene)-N-ethyl-3-sulfo-, hydroxide, inner salt, sodium salt; Benzenemethanaminium, N-[4-[[4-(dimethylamino)phenyl][4-[ethyl[(3-sulfophenyl)methyl]amino]phenyl]methylene]-2,5-cyclohexadien-1-ylidene]-N-ethyl-3-sulfo-, inner salt, sodium salt; solar violet 5bn; tetracid brilliant violet 6b; violet 2; violet 5b; violet 5bn; violet 6b; violet no. 1; wool violet; wool violet 4bn; wool violet 5bn.

$$$$
412


 15 15  0  0  0  0  0  0  0  0999 V2000
   31.2624   -4.3283   -0.0001 C   0  0  0  0  0  0  0  0  0  0  0  0
   31.6175   -5.6116    0.0006 C   0  0  0  0  0  0  0  0  0  0  0  0
   33.9684   -5.0308   -0.0001 C   0  0  0  0  0  0  0  0  0  0  0  0
   33.5790   -3.6194   -0.0002 C   0  0  0  0  0  0  0  0  0  0  0  0
   33.0340   -5.9796    0.0001 C   0  0  0  0  0  0  0  0  0  0  0  0
   32.2899   -3.2847   -0.0003 C   0  0  0  0  0  0  0  0  0  0  0  0
   31.8898   -1.8377   -0.0010 C   0  0  0  0  0  0  0  0  0  0  0  0
   33.3376   -0.8252    0.0002 Cl  0  0  0  0  0  0  0  0  0  0  0  0
   30.2944   -4.0772   -0.0006 H   0  0  0  0  0  0  0  0  0  0  0  0
   30.9159   -6.3243    0.0015 H   0  0  0  0  0  0  0  0  0  0  0  0
   34.9363   -5.2823   -0.0002 H   0  0  0  0  0  0  0  0  0  0  0  0
   34.2807   -2.9070   -0.0003 H   0  0  0  0  0  0  0  0  0  0  0  0
   33.3002   -6.9435   -0.0000 H   0  0  0  0  0  0  0  0  0  0  0  0
   31.3476   -1.6425   -0.8183 H   0  0  0  0  0  0  0  0  0  0  0  0
   31.3460   -1.6422    0.8150 H   0  0  0  0  0  0  0  0  0  0  0  0
  1  2  2  0  0  0  0
  3  4  1  0  0  0  0
  1  6  1  0  0  0  0
  2  5  1  0  0  0  0
  5  3  2  0  0  0  0
  4  6  2  0  0  0  0
  6  7  1  0  0  0  0
  7  8  1  0  0  0  0
  1  9  1  0  0  0  0
  2 10  1  0  0  0  0
  3 11  1  0  0  0  0
  4 12  1  0  0  0  0
  5 13  1  0  0  0  0
  7 14  1  0  0  0  0
  7 15  1  0  0  0  0
M  END
>  <Substance ID> (412)
412

>  <Mouse_Female_Canc> (412)
3

>  <SAL> (412)
3

>  <Rat_Male_Canc> (412)
1

>  <TD50_Rat> (412)
NP

>  <TD50_Mouse> (412)
61.5

>  <Rat_Female_Canc> (412)
1

>  <Canc> (412)
3

>  <MolWeight> (412)
126.59

>  <Mouse_Male_Canc> (412)
3

>  <Mouse_Male_NTP> (412)
ND

>  <ChemName> (412)
Benzyl chloride

>  <Rat_Male_NTP> (412)
ND

>  <Reference> (412)
CPDB

>  <Formula> (412)
C7H7Cl

>  <SMILES> (412)
ClCC1=CC=CC=C1

>  <Rat_Female_NTP> (412)
ND

>  <CAS> (412)
100-44-7

>  <Mouse_Female_NTP> (412)
ND

>  <Synonyms> (412)
alpha-Chlorotoluene; (chloromethyl)Benzene; Chlorophenylmethane; tolyl chloride; omega-Chlorotoluene.

$$$$
413


 10  9  0  0  0  0  0  0  0  0999 V2000
   30.8580   -9.9039   -0.0041 Cl  0  0  0  0  0  0  0  0  0  0  0  0
   32.2374  -10.9374   -0.0016 C   0  0  0  0  0  0  0  0  0  0  0  0
   31.9787  -12.6445    0.0003 Cl  0  0  0  0  0  0  0  0  0  0  0  0
   33.4531  -10.3715   -0.0008 C   0  0  0  0  0  0  0  0  0  0  0  0
   33.4783   -8.6390   -0.0021 Cl  0  0  0  0  0  0  0  0  0  0  0  0
   34.7408  -11.1850    0.0005 C   0  0  0  0  0  0  0  0  0  0  0  0
   34.7171  -12.9173    0.0010 Cl  0  0  0  0  0  0  0  0  0  0  0  0
   35.9569  -10.6209    0.0015 C   0  0  0  0  0  0  0  0  0  0  0  0
   36.2199   -8.9140    0.0012 Cl  0  0  0  0  0  0  0  0  0  0  0  0
   37.3321  -11.6597    0.0028 Cl  0  0  0  0  0  0  0  0  0  0  0  0
  1  2  1  0  0  0  0
  2  3  1  0  0  0  0
  2  4  2  0  0  0  0
  4  5  1  0  0  0  0
  4  6  1  0  0  0  0
  6  7  1  0  0  0  0
  6  8  2  0  0  0  0
  8  9  1  0  0  0  0
  8 10  1  0  0  0  0
M  END
>  <Substance ID> (413)
413

>  <Mouse_Female_Canc> (413)
ND

>  <SAL> (413)
1

>  <Rat_Male_Canc> (413)
3

>  <TD50_Rat> (413)
65.8

>  <TD50_Mouse> (413)
ND

>  <Rat_Female_Canc> (413)
3

>  <Canc> (413)
3

>  <MolWeight> (413)
260.76

>  <Mouse_Male_Canc> (413)
ND

>  <Mouse_Male_NTP> (413)
ND

>  <ChemName> (413)
Hexachlorobutadiene

>  <Rat_Male_NTP> (413)
ND

>  <Reference> (413)
CPDB

>  <Formula> (413)
C4Cl6

>  <SMILES> (413)
ClC(=C(Cl)Cl)C(=C(Cl)Cl)Cl

>  <Rat_Female_NTP> (413)
ND

>  <CAS> (413)
87-68-3

>  <Mouse_Female_NTP> (413)
ND

>  <Synonyms> (413)
1,1,2,3,4,4-hexachloro-1,3-Butadiene; 1,3-Hexachlorobutadiene; dolen-pur; gp-40-66:120; HCBD; hexachloro-1,3-butadiene; hexachlorobuta-1,3-diene; hexachlorobutadiene; HEXACHLOROBUTADIENE13; Perchlorobutadiene.

$$$$
414


 43 45  0  0  0  0  0  0  0  0999 V2000
   10.3274  -14.5265    0.0159 C   0  0  0  0  0  0  0  0  0  0  0  0
   10.3159  -15.8567    0.1298 C   0  0  0  0  0  0  0  0  0  0  0  0
   11.5591  -16.5889    0.2101 C   0  0  0  0  0  0  0  0  0  0  0  0
   12.7286  -15.9618    0.1791 C   0  0  0  0  0  0  0  0  0  0  0  0
   12.7753  -14.4403    0.0639 C   0  0  0  0  0  0  0  0  0  0  0  0
   11.6135  -13.7682   -0.0190 C   0  0  0  0  0  0  0  0  0  0  0  0
    9.0149  -16.6077    0.1755 C   0  0  0  0  0  0  0  0  0  0  0  0
   13.9665  -16.8239    0.2672 C   0  0  0  0  0  0  0  0  0  0  0  0
   14.0129  -13.7182    0.0413 N   0  0  0  0  0  0  0  0  0  0  0  0
   15.0741  -14.2773    0.0784 N   0  0  0  0  0  0  0  0  0  0  0  0
   16.2640  -13.5935    0.0425 C   0  0  0  0  0  0  0  0  0  0  0  0
   17.3821  -14.3147    0.1044 C   0  0  0  0  0  0  0  0  0  0  0  0
   17.4311  -11.4899   -0.0932 C   0  0  0  0  0  0  0  0  0  0  0  0
   16.2802  -12.1419   -0.0635 C   0  0  0  0  0  0  0  0  0  0  0  0
   18.7206  -12.2445   -0.0089 C   0  0  0  0  0  0  0  0  0  0  0  0
   18.6674  -13.6780    0.0779 C   0  0  0  0  0  0  0  0  0  0  0  0
   19.7825  -14.4056    0.1408 C   0  0  0  0  0  0  0  0  0  0  0  0
   21.0864  -13.7453    0.1259 C   0  0  0  0  0  0  0  0  0  0  0  0
   21.1472  -12.4174    0.0576 C   0  0  0  0  0  0  0  0  0  0  0  0
   19.9069  -11.6328   -0.0124 C   0  0  0  0  0  0  0  0  0  0  0  0
   17.2980  -15.6990    0.1981 O   0  0  0  0  0  0  0  0  0  0  0  0
   11.5496  -11.9527   -0.1608 S   0  0  0  0  0  0  0  0  0  0  0  0
   17.4200   -9.7449   -0.2107 S   0  0  0  0  0  0  0  0  0  0  0  0
   12.8972  -11.2596   -1.0565 O   0  5  0  0  0  0  0  0  0  0  0  0
   11.5720  -11.3628    1.2380 O   0  0  0  0  0  0  0  0  0  0  0  0
   10.2024  -11.5785   -0.7690 O   0  0  0  0  0  0  0  0  0  0  0  0
   18.8373   -9.2808   -1.0305 O   0  5  0  0  0  0  0  0  0  0  0  0
   17.5541   -9.1870    1.1965 O   0  0  0  0  0  0  0  0  0  0  0  0
   16.2680   -9.0927   -0.9188 O   0  0  0  0  0  0  0  0  0  0  0  0
    9.4615  -14.0303   -0.0469 H   0  0  0  0  0  0  0  0  0  0  0  0
   11.5380  -17.5854    0.2904 H   0  0  0  0  0  0  0  0  0  0  0  0
    9.1976  -17.5870    0.2621 H   0  0  0  0  0  0  0  0  0  0  0  0
    8.5017  -16.4379   -0.6658 H   0  0  0  0  0  0  0  0  0  0  0  0
    8.4784  -16.2985    0.9609 H   0  0  0  0  0  0  0  0  0  0  0  0
   14.7803  -16.2437    0.2343 H   0  0  0  0  0  0  0  0  0  0  0  0
   13.9828  -17.4640   -0.5009 H   0  0  0  0  0  0  0  0  0  0  0  0
   13.9567  -17.3351    1.1266 H   0  0  0  0  0  0  0  0  0  0  0  0
   15.4191  -11.6360   -0.1139 H   0  0  0  0  0  0  0  0  0  0  0  0
   19.7271  -15.4024    0.1983 H   0  0  0  0  0  0  0  0  0  0  0  0
   21.9260  -14.2868    0.1666 H   0  0  0  0  0  0  0  0  0  0  0  0
   22.0341  -11.9554    0.0540 H   0  0  0  0  0  0  0  0  0  0  0  0
   19.9517  -10.6351   -0.0630 H   0  0  0  0  0  0  0  0  0  0  0  0
   18.2186  -16.0876    0.2350 H   0  0  0  0  0  0  0  0  0  0  0  0
  1  2  2  0  0  0  0
  2  3  1  0  0  0  0
  3  4  2  0  0  0  0
  4  5  1  0  0  0  0
  5  6  2  0  0  0  0
  6  1  1  0  0  0  0
  2  7  1  0  0  0  0
  4  8  1  0  0  0  0
  5  9  1  0  0  0  0
  9 10  2  0  0  0  0
 10 11  1  0  0  0  0
 11 12  2  0  0  0  0
 12 16  1  0  0  0  0
 15 13  1  0  0  0  0
 13 14  2  0  0  0  0
 14 11  1  0  0  0  0
 15 16  1  0  0  0  0
 16 17  2  0  0  0  0
 17 18  1  0  0  0  0
 18 19  2  0  0  0  0
 19 20  1  0  0  0  0
 20 15  2  0  0  0  0
 12 21  1  0  0  0  0
  6 22  1  0  0  0  0
 13 23  1  0  0  0  0
 22 24  1  0  0  0  0
 22 25  2  0  0  0  0
 22 26  2  0  0  0  0
 23 27  1  0  0  0  0
 23 28  2  0  0  0  0
 23 29  2  0  0  0  0
  1 30  1  0  0  0  0
  3 31  1  0  0  0  0
  7 32  1  0  0  0  0
  7 33  1  0  0  0  0
  7 34  1  0  0  0  0
  8 35  1  0  0  0  0
  8 36  1  0  0  0  0
  8 37  1  0  0  0  0
 14 38  1  0  0  0  0
 17 39  1  0  0  0  0
 18 40  1  0  0  0  0
 19 41  1  0  0  0  0
 20 42  1  0  0  0  0
 21 43  1  0  0  0  0
M  END
>  <Substance ID> (414)
414

>  <Mouse_Female_Canc> (414)
1

>  <SAL> (414)
1

>  <Rat_Male_Canc> (414)
3

>  <TD50_Rat> (414)
8110

>  <TD50_Mouse> (414)
NP

>  <Rat_Female_Canc> (414)
3

>  <Canc> (414)
3

>  <MolWeight> (414)
480.42

>  <Mouse_Male_Canc> (414)
1

>  <Mouse_Male_NTP> (414)
ND

>  <ChemName> (414)
FD & C Red No. 4

>  <Rat_Male_NTP> (414)
ND

>  <Reference> (414)
CPDB

>  <Formula> (414)
C18H14N2O7S2Na2 

>  <SMILES> (414)
[Na+].[O-]S(=O)(=O)c3cc(cc(c3/N=N/c2cc(c1ccccc1c2O)S([O-])(=O)=O)C)C.[Na+]

>  <Rat_Female_NTP> (414)
ND

>  <CAS> (414)
4548-53-2

>  <Mouse_Female_NTP> (414)
ND

>  <Synonyms> (414)
12101 red; 1306 red; 2-(6-sulfo-2,4-xylylazo)-1-naphthol-4-sulfonic acid, disodium salt; 3-((2,4-dimethyl-5-sulfophenyl)azo)-4-hydroxy-1-naphthalenesulfonic acid, disodium salt; 4-Hydroxy-3-(2,4-dimethyl-5-sulfophenylazo)-1-naphthalenesulfonic acid disodium salt; 4-hydroxy-3-((5-sulfo-2,4-xylyl)azo)-1-naphthalenesulfonic acid, disodium salt; 4-hydroxy-3-((6-sulfo-2,4-xylyl)azo)-1-naphthalenesulfonic acid, disodium salt; 4R purple; Disodium 4-hydroxy-3-(2,4-dimethyl-5-sulfonatophenylazo)-1-naphthalenesulfonate; certicol ponceau sxs; C.I. 14700; C.I. food red 1; C.I. food red 1, disodium salt; crimson 4R; dye FD&C Red No. 4; edicol supra ponceau sx; FD&C Red No. 4-aluminum lake; Food Red 1; food red 4; hexacol ponceau sx; maple ponceau sx; Ponceau SX; ponceau sx lake; purple 4R; red lake 89865n; red no. 1; red no. 4; usacert fd & c red no. 4; usacert red no. 4.

$$$$
415


 46 49  0  0  0  0  0  0  0  0999 V2000
   32.3737  -17.3783    0.0661 C   0  0  0  0  0  0  0  0  0  0  0  0
   30.9088  -17.1377    0.0038 C   0  0  0  0  0  0  0  0  0  0  0  0
   32.8734  -18.6169    0.1044 C   0  0  0  0  0  0  0  0  0  0  0  0
   30.0352  -18.1477   -0.0179 C   0  0  0  0  0  0  0  0  0  0  0  0
   31.9650  -19.7564    0.0912 C   0  0  0  0  0  0  0  0  0  0  0  0
   30.5281  -19.5240    0.0307 C   0  0  0  0  0  0  0  0  0  0  0  0
   30.2048  -21.9225    0.0615 C   0  0  0  0  0  0  0  0  0  0  0  0
   31.5190  -22.1340    0.1141 C   0  0  0  0  0  0  0  0  0  0  0  0
   29.6863  -20.5552    0.0180 C   0  0  0  0  0  0  0  0  0  0  0  0
   32.4430  -20.9979    0.1300 C   0  0  0  0  0  0  0  0  0  0  0  0
   34.2698  -18.8328    0.1368 N   0  0  0  0  0  0  0  0  0  0  0  0
   35.0398  -17.8951    0.1291 N   0  0  0  0  0  0  0  0  0  0  0  0
   36.4711  -18.0126    0.0941 C   0  0  0  0  0  0  0  0  0  0  0  0
   39.2616  -18.0442   -0.0271 C   0  0  0  0  0  0  0  0  0  0  0  0
   38.5597  -16.7772   -0.0111 C   0  0  0  0  0  0  0  0  0  0  0  0
   37.2207  -16.7591    0.0518 C   0  0  0  0  0  0  0  0  0  0  0  0
   38.5892  -19.1846    0.0176 C   0  0  0  0  0  0  0  0  0  0  0  0
   37.1361  -19.1871    0.0810 C   0  0  0  0  0  0  0  0  0  0  0  0
   37.1806  -21.6251    0.0848 C   0  0  0  0  0  0  0  0  0  0  0  0
   38.6570  -21.5977    0.0096 C   0  0  0  0  0  0  0  0  0  0  0  0
   36.4657  -20.4964    0.1182 C   0  0  0  0  0  0  0  0  0  0  0  0
   39.3136  -20.4417   -0.0171 C   0  0  0  0  0  0  0  0  0  0  0  0
   36.4942  -15.5601    0.0735 O   0  0  0  0  0  0  0  0  0  0  0  0
   28.2866  -17.7964   -0.1126 S   0  0  0  0  0  0  0  0  0  0  0  0
   39.5385  -15.2999   -0.0855 S   0  0  0  0  0  0  0  0  0  0  0  0
   39.5775  -23.1110   -0.0598 S   0  0  0  0  0  0  0  0  0  0  0  0
   41.0324  -15.6686   -0.8309 O   0  5  0  0  0  0  0  0  0  0  0  0
   39.8202  -14.8217    1.3269 O   0  0  0  0  0  0  0  0  0  0  0  0
   38.8274  -14.2008   -0.8515 O   0  0  0  0  0  0  0  0  0  0  0  0
   28.0695  -16.3092   -0.8935 O   0  5  0  0  0  0  0  0  0  0  0  0
   27.7337  -17.6972    1.2955 O   0  0  0  0  0  0  0  0  0  0  0  0
   27.5468  -18.8947   -0.8533 O   0  0  0  0  0  0  0  0  0  0  0  0
   38.6852  -24.2899   -0.8968 O   0  5  0  0  0  0  0  0  0  0  0  0
   39.8297  -23.6016    1.3530 O   0  0  0  0  0  0  0  0  0  0  0  0
   40.9121  -22.8635   -0.7381 O   0  0  0  0  0  0  0  0  0  0  0  0
   32.9983  -16.5975    0.0796 H   0  0  0  0  0  0  0  0  0  0  0  0
   30.5690  -16.1976   -0.0225 H   0  0  0  0  0  0  0  0  0  0  0  0
   29.5731  -22.6977    0.0517 H   0  0  0  0  0  0  0  0  0  0  0  0
   31.8745  -23.0683    0.1426 H   0  0  0  0  0  0  0  0  0  0  0  0
   28.7000  -20.3952   -0.0213 H   0  0  0  0  0  0  0  0  0  0  0  0
   33.4298  -21.1545    0.1700 H   0  0  0  0  0  0  0  0  0  0  0  0
   40.2605  -18.0581   -0.0722 H   0  0  0  0  0  0  0  0  0  0  0  0
   36.7076  -22.5058    0.1111 H   0  0  0  0  0  0  0  0  0  0  0  0
   35.4681  -20.5420    0.1689 H   0  0  0  0  0  0  0  0  0  0  0  0
   40.3126  -20.4385   -0.0614 H   0  0  0  0  0  0  0  0  0  0  0  0
   37.1264  -14.7860    0.0401 H   0  0  0  0  0  0  0  0  0  0  0  0
  1  2  1  0  0  0  0
  6  4  1  0  0  0  0
  5  3  1  0  0  0  0
  3  1  2  0  0  0  0
  2  4  2  0  0  0  0
  5  6  1  0  0  0  0
  7  8  2  0  0  0  0
  5 10  2  0  0  0  0
  6  9  2  0  0  0  0
  9  7  1  0  0  0  0
  8 10  1  0  0  0  0
  3 11  1  0  0  0  0
 11 12  2  0  0  0  0
 12 13  1  0  0  0  0
 13 18  2  0  0  0  0
 14 15  1  0  0  0  0
 13 16  1  0  0  0  0
 17 14  2  0  0  0  0
 15 16  2  0  0  0  0
 17 18  1  0  0  0  0
 19 20  1  0  0  0  0
 17 22  1  0  0  0  0
 18 21  1  0  0  0  0
 21 19  2  0  0  0  0
 20 22  2  0  0  0  0
 16 23  1  0  0  0  0
  4 24  1  0  0  0  0
 15 25  1  0  0  0  0
 20 26  1  0  0  0  0
 25 27  1  0  0  0  0
 25 28  2  0  0  0  0
 25 29  2  0  0  0  0
 24 30  1  0  0  0  0
 24 31  2  0  0  0  0
 24 32  2  0  0  0  0
 26 33  1  0  0  0  0
 26 34  2  0  0  0  0
 26 35  2  0  0  0  0
  1 36  1  0  0  0  0
  2 37  1  0  0  0  0
  7 38  1  0  0  0  0
  8 39  1  0  0  0  0
  9 40  1  0  0  0  0
 10 41  1  0  0  0  0
 14 42  1  0  0  0  0
 19 43  1  0  0  0  0
 21 44  1  0  0  0  0
 22 45  1  0  0  0  0
 23 46  1  0  0  0  0
M  END
>  <Substance ID> (415)
415

>  <Mouse_Female_Canc> (415)
ND

>  <SAL> (415)
1

>  <Rat_Male_Canc> (415)
3

>  <TD50_Rat> (415)
1470

>  <TD50_Mouse> (415)
ND

>  <Rat_Female_Canc> (415)
3

>  <Canc> (415)
3

>  <MolWeight> (415)
604.48

>  <Mouse_Male_Canc> (415)
ND

>  <Mouse_Male_NTP> (415)
ND

>  <ChemName> (415)
FD & C Red No. 2

>  <Rat_Male_NTP> (415)
ND

>  <Reference> (415)
CPDB

>  <Formula> (415)
C20H11N2O10S3Na3 

>  <SMILES> (415)
[Na+].[O-]S(=O)(=O)c4c1c(cccc1)c(/N=N/c3c2ccc(cc2cc(c3O)S([O-].[Na+].)(=O)=O)S([O-])(=O)=O)cc4.[Na+]

>  <Rat_Female_NTP> (415)
ND

>  <CAS> (415)
915-67-3

>  <Mouse_Female_NTP> (415)
ND

>  <Synonyms> (415)
1'-(4-Sulfo-1-naphthylazo)-2'-hydroxy-3',6'-naphthalenedisulfonic acid trisodium salt; Trisodium 3-hydroxy-4-(4-sulfonato-1-naphthylazo)-2,7-naphthalenedisulfonate; 1-(4-Sulfo-1-naphthylazo)-2-hydroxy-3,6-naphthalenedisulfonic acid trisodium salt; amaranth; Food Red No.2; C.I. 16185; Amarance Food Red No.2; Bordeaus S; Acid Red 27; azorubin s; 3-hydroxy-4-((4-sulfo-1-naphthyl)azo)-2,7-naphthalenedisulfonic acid, trisodium salt; acetacid red 2br; acid amaranth; acid amaranth i; acid amaranth n; acid leather red 12bw; acid leather rubine s; acid red 37; acilan red se; aizen amaranth; amacid amaranth; amaranth a; amaranth b; amaranth bpc; amaranth lake; amaranth s; amaranth wd; azo red r; azo rubine s; azo rubine sf; azo rubine s.fq; azo ruby s; bordeaux; bordeaux s; calcocid amaranth; canacert amaranth; certicol amaranth s; C.I. 184; C.I. acid red 27; C.I. acid red 27, trisodium salt; C.I. food red 9; cilefa rubine 2b; daishiki amaranth; d and c red 2; dolkwal amaranth; dye fdc red 2; dye red raspberry; E 123; edicol amaranth; edicol supra amaranth a; eec no. 123; eurocert amaranth; fast red; fd and c red no. 2-aluminum lake; food red 2; food red 9; fruit red a geigy; hd amaranth b; hd amaranth supra; hexacert red no. 2; hexacol amaranth b extra; hidacid amaranth; hispacid red am; 2-hydroxy-1,1'-azonaphthalene-3,6,4'-trisulfonic acid trisodium salt; java amaranth; kayaku amaranth; kayaku food colour red no. 2; kiton rubine s; kca foodcol amaranth a; lissamine amaranth ac; L-Red 3; maple amaranth; naphthol red c; naphthol red LZS; naphthol red o; naphthol red s; naphthol red si; neklacid red a; rakuto amaranth; 1302 red; 1508 red; red no. 2; san-ei amaranth; S-azo rubine; shikiso amaranth; solar red o; 1-(4-sulfo-1-naphthylazo)-2-naphthol-3,6-disulfonic acid trisodium salt; takaoka amaranth; tertracid red a; toyo amaranth; trisodium salt of 1-(4-sulfo-1-naphthylazo)-2-naphthol-3,6-disulfonic acid; usacert red no. 2; victoria rubine o; victoria rubine o for food; whortleberry red; wool bordeaux 6RK; wool red; wool red 40f; Love-lies-bleeding; Red cockscomb; Amaranthus hypochondriacus linn.; Velvet flower.

$$$$
416


 27 29  0  0  0  0  0  0  0  0999 V2000
   27.6095  -24.5444   -0.0051 C   0  0  0  0  0  0  0  0  0  0  0  0
   27.0936  -25.7832    0.0067 C   0  0  0  0  0  0  0  0  0  0  0  0
   27.9861  -26.9607    0.0117 C   0  0  0  0  0  0  0  0  0  0  0  0
   29.0785  -24.3499   -0.0103 C   0  0  0  0  0  0  0  0  0  0  0  0
   29.8244  -25.4463   -0.0041 C   0  0  0  0  0  0  0  0  0  0  0  0
   29.2938  -26.7393    0.0052 C   0  0  0  0  0  0  0  0  0  0  0  0
   30.3181  -27.7272    0.0062 O   0  0  0  0  0  0  0  0  0  0  0  0
   31.2141  -25.5857   -0.0052 C   0  0  0  0  0  0  0  0  0  0  0  0
   31.4899  -26.8753   -0.0009 C   0  0  0  0  0  0  0  0  0  0  0  0
   33.8423  -26.4583   -0.0044 C   0  0  0  0  0  0  0  0  0  0  0  0
   33.5207  -24.9412   -0.0030 C   0  0  0  0  0  0  0  0  0  0  0  0
   32.8452  -27.3452   -0.0027 C   0  0  0  0  0  0  0  0  0  0  0  0
   32.2358  -24.5593   -0.0064 C   0  0  0  0  0  0  0  0  0  0  0  0
   34.5016  -23.8878    0.0042 O   0  0  0  0  0  0  0  0  0  0  0  0
   35.1447  -26.9743   -0.0086 N   0  0  0  0  0  0  0  0  0  0  0  0
   35.8795  -24.2827    0.0165 C   0  0  0  0  0  0  0  0  0  0  0  0
   27.0012  -23.7507   -0.0104 H   0  0  0  0  0  0  0  0  0  0  0  0
   26.1016  -25.9098    0.0121 H   0  0  0  0  0  0  0  0  0  0  0  0
   27.6177  -27.8903    0.0198 H   0  0  0  0  0  0  0  0  0  0  0  0
   29.4871  -23.4372   -0.0181 H   0  0  0  0  0  0  0  0  0  0  0  0
   33.0406  -28.3259   -0.0026 H   0  0  0  0  0  0  0  0  0  0  0  0
   31.9890  -23.5902   -0.0098 H   0  0  0  0  0  0  0  0  0  0  0  0
   35.2906  -27.9636   -0.0093 H   0  0  0  0  0  0  0  0  0  0  0  0
   35.9285  -26.3533   -0.0109 H   0  0  0  0  0  0  0  0  0  0  0  0
   36.4600  -23.4685    0.0205 H   0  0  0  0  0  0  0  0  0  0  0  0
   36.0775  -24.8286   -0.7976 H   0  0  0  0  0  0  0  0  0  0  0  0
   36.0635  -24.8267    0.8352 H   0  0  0  0  0  0  0  0  0  0  0  0
  1  2  2  0  0  0  0
  1  4  1  0  0  0  0
  2  3  1  0  0  0  0
  3  6  2  0  0  0  0
  5  4  2  0  0  0  0
  5  6  1  0  0  0  0
  6  7  1  0  0  0  0
  7  9  1  0  0  0  0
  5  8  1  0  0  0  0
  8  9  2  0  0  0  0
 10 11  1  0  0  0  0
  8 13  1  0  0  0  0
  9 12  1  0  0  0  0
 12 10  2  0  0  0  0
 11 13  2  0  0  0  0
 11 14  1  0  0  0  0
 10 15  1  0  0  0  0
 14 16  1  0  0  0  0
  1 17  1  0  0  0  0
  2 18  1  0  0  0  0
  3 19  1  0  0  0  0
  4 20  1  0  0  0  0
 12 21  1  0  0  0  0
 13 22  1  0  0  0  0
 15 23  1  0  0  0  0
 15 24  1  0  0  0  0
 16 25  1  0  0  0  0
 16 26  1  0  0  0  0
 16 27  1  0  0  0  0
M  END
>  <Substance ID> (416)
416

>  <Mouse_Female_Canc> (416)
ND

>  <SAL> (416)
ND

>  <Rat_Male_Canc> (416)
3

>  <TD50_Rat> (416)
29

>  <TD50_Mouse> (416)
ND

>  <Rat_Female_Canc> (416)
3

>  <Canc> (416)
3

>  <MolWeight> (416)
213.24

>  <Mouse_Male_Canc> (416)
ND

>  <Mouse_Male_NTP> (416)
ND

>  <ChemName> (416)
2-Methoxy-3-aminodibenzofuran

>  <Rat_Male_NTP> (416)
ND

>  <Reference> (416)
CPDB

>  <Formula> (416)
C13H11NO2

>  <SMILES> (416)
NC1=C(C=C2C3=C(C=CC=C3)OC2=C1)OC

>  <Rat_Female_NTP> (416)
ND

>  <CAS> (416)
5834-17-3

>  <Mouse_Female_NTP> (416)
ND

>  <Synonyms> (416)
2-Methoxy-3-dibenzofuranamine; 3-Amino-2-methoxy-dibenzofuran.

$$$$
417


 27 28  0  0  0  0  0  0  0  0999 V2000
   45.8644  -33.6542   -0.0171 N   0  0  0  0  0  0  0  0  0  0  0  0
   46.4720  -34.9183   -0.0265 C   0  0  0  0  0  0  0  0  0  0  0  0
   47.8707  -34.7684    0.0147 N   0  0  0  0  0  0  0  0  0  0  0  0
   48.1078  -33.3623    0.3474 C   0  0  2  0  0  0  0  0  0  0  0  0
   46.8598  -32.6076   -0.1797 C   0  0  0  0  0  0  0  0  0  0  0  0
   41.1762  -34.8356    0.0529 O   0  0  0  0  0  0  0  0  0  0  0  0
   42.2621  -33.9301    0.0200 C   0  0  0  0  0  0  0  0  0  0  0  0
   41.8864  -32.6583   -0.0334 C   0  0  0  0  0  0  0  0  0  0  0  0
   40.4691  -32.6537   -0.0396 C   0  0  0  0  0  0  0  0  0  0  0  0
   40.0927  -33.9251    0.0099 C   0  0  0  0  0  0  0  0  0  0  0  0
   43.6682  -34.3276    0.0370 C   0  0  0  0  0  0  0  0  0  0  0  0
   44.5448  -33.4092   -0.0171 N   0  0  0  0  0  0  0  0  0  0  0  0
   49.4699  -32.7740   -0.0599 C   0  0  0  0  0  0  0  0  0  0  0  0
   45.8881  -36.0001   -0.1532 O   0  0  0  0  0  0  0  0  0  0  0  0
   38.7639  -34.3167    0.0168 N   0  3  0  0  0  0  0  0  0  0  0  0
   37.8092  -33.4049   -0.0271 O   0  5  0  0  0  0  0  0  0  0  0  0
   38.4939  -35.4585    0.0595 O   0  0  0  0  0  0  0  0  0  0  0  0
   48.5592  -35.4749   -0.1492 H   0  0  0  0  0  0  0  0  0  0  0  0
   48.2046  -33.2537    1.3368 H   0  0  0  0  0  0  0  0  0  0  0  0
   46.6488  -31.8022    0.3743 H   0  0  0  0  0  0  0  0  0  0  0  0
   46.9638  -32.3365   -1.1366 H   0  0  0  0  0  0  0  0  0  0  0  0
   42.4865  -31.8589   -0.0635 H   0  0  0  0  0  0  0  0  0  0  0  0
   39.8721  -31.8522   -0.0743 H   0  0  0  0  0  0  0  0  0  0  0  0
   43.9320  -35.2907    0.0895 H   0  0  0  0  0  0  0  0  0  0  0  0
   49.5155  -31.8144    0.2175 H   0  0  0  0  0  0  0  0  0  0  0  0
   49.5785  -32.8393   -1.0518 H   0  0  0  0  0  0  0  0  0  0  0  0
   50.2023  -33.2856    0.3896 H   0  0  0  0  0  0  0  0  0  0  0  0
  1  2  1  0  0  0  0
  2  3  1  0  0  0  0
  3  4  1  0  0  0  0
  4  5  1  0  0  0  0
  5  1  1  0  0  0  0
  9 10  2  0  0  0  0
  7  8  2  0  0  0  0
  6  7  1  0  0  0  0
  8  9  1  0  0  0  0
 10  6  1  0  0  0  0
  7 11  1  0  0  0  0
 11 12  2  0  0  0  0
 12  1  1  0  0  0  0
  4 13  1  0  0  0  0
  2 14  2  0  0  0  0
 10 15  1  0  0  0  0
 15 16  1  0  0  0  0
 15 17  2  0  0  0  0
  3 18  1  0  0  0  0
  4 19  1  0  0  0  0
  5 20  1  0  0  0  0
  5 21  1  0  0  0  0
  8 22  1  0  0  0  0
  9 23  1  0  0  0  0
 11 24  1  0  0  0  0
 13 25  1  0  0  0  0
 13 26  1  0  0  0  0
 13 27  1  0  0  0  0
M  END
>  <Substance ID> (417)
417

>  <Mouse_Female_Canc> (417)
ND

>  <SAL> (417)
3

>  <Rat_Male_Canc> (417)
ND

>  <TD50_Rat> (417)
5.34

>  <TD50_Mouse> (417)
ND

>  <Rat_Female_Canc> (417)
3

>  <Canc> (417)
3

>  <MolWeight> (417)
238.20

>  <Mouse_Male_Canc> (417)
ND

>  <Mouse_Male_NTP> (417)
ND

>  <ChemName> (417)
4-Methyl-1-[(5-nitrofurfurylidene)amino]-2-imidazolidinone

>  <Rat_Male_NTP> (417)
ND

>  <Reference> (417)
CPDB

>  <Formula> (417)
C9H10N4O4

>  <SMILES> (417)
C1(NC(CN1/N=C/C2=CC=C(O2)[N+](=O)[O-])C)=O

>  <Rat_Female_NTP> (417)
ND

>  <CAS> (417)
21638-36-8

>  <Mouse_Female_NTP> (417)
ND

>  <Synonyms> (417)
-

$$$$
418


 46 48  0  0  0  0  0  0  0  0999 V2000
   36.6224  -44.8079    0.0348 C   0  0  0  0  0  0  0  0  0  0  0  0
   39.3943  -44.6260   -0.1294 C   0  0  0  0  0  0  0  0  0  0  0  0
   38.5951  -43.4037   -0.0604 C   0  0  0  0  0  0  0  0  0  0  0  0
   37.2576  -43.4833    0.0220 C   0  0  0  0  0  0  0  0  0  0  0  0
   30.8524  -43.1965   -0.0353 C   0  0  0  0  0  0  0  0  0  0  0  0
   30.3008  -44.4083    0.0082 C   0  0  0  0  0  0  0  0  0  0  0  0
   32.4896  -45.4623    0.1103 C   0  0  0  0  0  0  0  0  0  0  0  0
   33.0951  -44.1264    0.0556 C   0  0  0  0  0  0  0  0  0  0  0  0
   31.1615  -45.5968    0.0874 C   0  0  0  0  0  0  0  0  0  0  0  0
   32.3132  -43.0497   -0.0119 C   0  0  0  0  0  0  0  0  0  0  0  0
   30.5471  -46.9652    0.1425 C   0  0  0  0  0  0  0  0  0  0  0  0
   28.8039  -44.5504   -0.0179 C   0  0  0  0  0  0  0  0  0  0  0  0
   32.9280  -41.6841   -0.0716 C   0  0  0  0  0  0  0  0  0  0  0  0
   34.4950  -43.9738    0.0606 N   0  0  0  0  0  0  0  0  0  0  0  0
   35.2225  -44.9411    0.0870 N   0  0  0  0  0  0  0  0  0  0  0  0
   38.8042  -45.8138   -0.1119 C   0  0  0  0  0  0  0  0  0  0  0  0
   37.3706  -45.9084   -0.0247 C   0  0  0  0  0  0  0  0  0  0  0  0
   37.5159  -48.3176   -0.1072 C   0  0  0  0  0  0  0  0  0  0  0  0
   38.9912  -48.2215   -0.2126 C   0  0  0  0  0  0  0  0  0  0  0  0
   36.7535  -47.2264   -0.0180 C   0  0  0  0  0  0  0  0  0  0  0  0
   39.5947  -47.0315   -0.2079 C   0  0  0  0  0  0  0  0  0  0  0  0
   36.4522  -42.3356    0.0927 O   0  0  0  0  0  0  0  0  0  0  0  0
   39.4636  -41.8597   -0.1003 S   0  0  0  0  0  0  0  0  0  0  0  0
   40.9810  -42.1074   -0.8490 O   0  5  0  0  0  0  0  0  0  0  0  0
   39.7108  -41.3917    1.3220 O   0  0  0  0  0  0  0  0  0  0  0  0
   38.6834  -40.7939   -0.8462 O   0  0  0  0  0  0  0  0  0  0  0  0
   39.9682  -49.7052   -0.3677 S   0  0  0  0  0  0  0  0  0  0  0  0
   38.5406  -50.3759    0.2654 O   0  5  0  0  0  0  0  0  0  0  0  0
   40.5568  -50.6238    0.6856 O   0  0  0  0  0  0  0  0  0  0  0  0
   41.0283  -48.7816    0.2019 O   0  0  0  0  0  0  0  0  0  0  0  0
   40.3906  -44.5663   -0.1900 H   0  0  0  0  0  0  0  0  0  0  0  0
   30.2703  -42.3849   -0.0841 H   0  0  0  0  0  0  0  0  0  0  0  0
   33.0727  -46.2728    0.1647 H   0  0  0  0  0  0  0  0  0  0  0  0
   31.2702  -47.6540    0.1934 H   0  0  0  0  0  0  0  0  0  0  0  0
   29.9989  -47.1183   -0.6798 H   0  0  0  0  0  0  0  0  0  0  0  0
   29.9622  -47.0362    0.9505 H   0  0  0  0  0  0  0  0  0  0  0  0
   28.5598  -45.5193    0.0213 H   0  0  0  0  0  0  0  0  0  0  0  0
   28.4453  -44.1506   -0.8615 H   0  0  0  0  0  0  0  0  0  0  0  0
   28.4098  -44.0758    0.7692 H   0  0  0  0  0  0  0  0  0  0  0  0
   33.9244  -41.7652   -0.0459 H   0  0  0  0  0  0  0  0  0  0  0  0
   32.6178  -41.1438    0.7107 H   0  0  0  0  0  0  0  0  0  0  0  0
   32.6527  -41.2308   -0.9194 H   0  0  0  0  0  0  0  0  0  0  0  0
   37.0831  -49.2190   -0.1028 H   0  0  0  0  0  0  0  0  0  0  0  0
   35.7599  -47.3140    0.0532 H   0  0  0  0  0  0  0  0  0  0  0  0
   40.5912  -46.9765   -0.2704 H   0  0  0  0  0  0  0  0  0  0  0  0
   37.0306  -41.5201    0.0735 H   0  0  0  0  0  0  0  0  0  0  0  0
  1 17  2  0  0  0  0
  2  3  1  0  0  0  0
  1  4  1  0  0  0  0
 16  2  2  0  0  0  0
  3  4  2  0  0  0  0
  5  6  2  0  0  0  0
  7  8  1  0  0  0  0
  5 10  1  0  0  0  0
  6  9  1  0  0  0  0
  9  7  2  0  0  0  0
  8 10  2  0  0  0  0
  9 11  1  0  0  0  0
  6 12  1  0  0  0  0
 10 13  1  0  0  0  0
  8 14  1  0  0  0  0
 14 15  2  0  0  0  0
 15  1  1  0  0  0  0
 16 17  1  0  0  0  0
 18 19  1  0  0  0  0
 16 21  1  0  0  0  0
 17 20  1  0  0  0  0
 20 18  2  0  0  0  0
 19 21  2  0  0  0  0
  4 22  1  0  0  0  0
  3 23  1  0  0  0  0
 23 24  1  0  0  0  0
 23 25  2  0  0  0  0
 23 26  2  0  0  0  0
 27 28  1  0  0  0  0
 27 29  2  0  0  0  0
 27 30  2  0  0  0  0
 19 27  1  0  0  0  0
  2 31  1  0  0  0  0
  5 32  1  0  0  0  0
  7 33  1  0  0  0  0
 11 34  1  0  0  0  0
 11 35  1  0  0  0  0
 11 36  1  0  0  0  0
 12 37  1  0  0  0  0
 12 38  1  0  0  0  0
 12 39  1  0  0  0  0
 13 40  1  0  0  0  0
 13 41  1  0  0  0  0
 13 42  1  0  0  0  0
 18 43  1  0  0  0  0
 20 44  1  0  0  0  0
 21 45  1  0  0  0  0
 22 46  1  0  0  0  0
M  END
>  <Substance ID> (418)
418

>  <Mouse_Female_Canc> (418)
ND

>  <SAL> (418)
1

>  <Rat_Male_Canc> (418)
3

>  <TD50_Rat> (418)
521

>  <TD50_Mouse> (418)
ND

>  <Rat_Female_Canc> (418)
3

>  <Canc> (418)
3

>  <MolWeight> (418)
494.45

>  <Mouse_Male_Canc> (418)
ND

>  <Mouse_Male_NTP> (418)
ND

>  <ChemName> (418)
FD & C Red No. 1

>  <Rat_Male_NTP> (418)
ND

>  <Reference> (418)
CPDB

>  <Formula> (418)
C19H16N2O7S2Na2 

>  <SMILES> (418)
[Na+].[O-]S(=O)(=O)c1ccc3c(c1)cc(c(O)c3/N=N/c2cc(c(cc2C)C)C)S([O-])(=O)=O.[Na+]

>  <Rat_Female_NTP> (418)
ND

>  <CAS> (418)
3564-09-8

>  <Mouse_Female_NTP> (418)
ND

>  <Synonyms> (418)
3-hydroxy-4-((2,4,5-trimethylphenyl)azo)-2,7-naphthalenedisulfonic acid, disodium salt; a.f. red no. 1; disodium 3-hydroxy-4-((2,4,5-trimethylphenyl)azo)-2,7-naphthalenedisulfonate; disodium 3-hydroxy-4-((2,4,5-trimethylphenyl)azo)-2,7-naphthalenedisulfonic acid; Disodium 3-hydroxy-4-(2,4,5-trimethylphenylazo)-2,7-naphthalenesulfonate; C.I. 16155; C.I. food red 6; C.I. food red 6, disodium salt; d and c red 15; dolkwal ponceau 3R; ext. d and c red no. 15; fdc red 1; Food Red 6; japan red 1; japan red 502; maple ponceau 3R; Ponceau 3R; PONCEAU 3R (=DISODIUM 1-(DIMETHYLPHENYLAZO)-2-NAPHTHOL-; ponceau 3R lake; ponceau 3RN; ponceau rn; scarlet f; sodium cumeneazo-beta-naphthol disulfonate; ponceau 3R sodium salt; usacert red no. 1.

$$$$
419


  0  0  0  0  0  0  0  0  0  0999 V2000
M  END
>  <Substance ID> (419)
419

>  <Mouse_Female_Canc> (419)
2

>  <SAL> (419)
1

>  <Rat_Male_Canc> (419)
1

>  <TD50_Rat> (419)
ND

>  <TD50_Mouse> (419)
6540

>  <Rat_Female_Canc> (419)
2

>  <Canc> (419)
3

>  <MolWeight> (419)
Unspecified 

>  <Mouse_Male_Canc> (419)
3

>  <Mouse_Male_NTP> (419)
CE

>  <ChemName> (419)
Chlorinated paraffins (C23, 43% Chlorine)

>  <Rat_Male_NTP> (419)
NE

>  <Reference> (419)
NTP305

>  <Formula> (419)
Unspecified 

>  <SMILES> (419)
Unspecified 

>  <Rat_Female_NTP> (419)
EE

>  <CAS> (419)
108171-27-3

>  <Mouse_Female_NTP> (419)
EE

>  <Synonyms> (419)
Paraffin waxes and hydrocarbon waxes, chlorinated (C23, 43% chlorine); alkanes, C22-26, chloro; chloro C22-26 alkanes.

$$$$
420


 43 45  0  0  0  0  0  0  0  0999 V2000
   31.0564  -59.5933   -0.0039 C   0  0  0  0  0  0  0  0  0  0  0  0
   31.0209  -60.9233    0.0659 C   0  0  0  0  0  0  0  0  0  0  0  0
   32.2750  -61.6854    0.0962 C   0  0  0  0  0  0  0  0  0  0  0  0
   32.3436  -58.9021   -0.0447 C   0  0  0  0  0  0  0  0  0  0  0  0
   33.4740  -59.6048   -0.0168 C   0  0  0  0  0  0  0  0  0  0  0  0
   33.4419  -61.0434    0.0535 C   0  0  0  0  0  0  0  0  0  0  0  0
   35.8663  -61.1346    0.0409 C   0  0  0  0  0  0  0  0  0  0  0  0
   35.8886  -59.6285   -0.0383 C   0  0  0  0  0  0  0  0  0  0  0  0
   34.6982  -61.7848    0.0756 C   0  0  0  0  0  0  0  0  0  0  0  0
   34.7504  -58.9345   -0.0625 C   0  0  0  0  0  0  0  0  0  0  0  0
   37.0533  -61.8736    0.0773 O   0  0  0  0  0  0  0  0  0  0  0  0
   34.6462  -63.1920    0.1216 N   0  0  0  0  0  0  0  0  0  0  0  0
   35.6546  -63.8587    0.0996 N   0  0  0  0  0  0  0  0  0  0  0  0
   29.5503  -58.6616   -0.0581 S   0  0  0  0  0  0  0  0  0  0  0  0
   37.3999  -58.6877   -0.1064 S   0  0  0  0  0  0  0  0  0  0  0  0
   35.5982  -65.2510    0.0871 C   0  0  0  0  0  0  0  0  0  0  0  0
   34.4235  -65.8793    0.0892 C   0  0  0  0  0  0  0  0  0  0  0  0
   34.3780  -67.3470    0.0597 C   0  0  0  0  0  0  0  0  0  0  0  0
   35.5128  -68.0462    0.0319 C   0  0  0  0  0  0  0  0  0  0  0  0
   36.8025  -67.3525    0.0302 C   0  0  0  0  0  0  0  0  0  0  0  0
   36.8419  -66.0222    0.0563 C   0  0  0  0  0  0  0  0  0  0  0  0
   38.1628  -65.3108    0.0513 C   0  0  0  0  0  0  0  0  0  0  0  0
   35.4696  -69.5456    0.0002 C   0  0  0  0  0  0  0  0  0  0  0  0
   38.5773  -59.3818   -1.1247 O   0  5  0  0  0  0  0  0  0  0  0  0
   37.9670  -58.5621    1.2954 O   0  0  0  0  0  0  0  0  0  0  0  0
   37.0709  -57.2957   -0.6140 O   0  0  0  0  0  0  0  0  0  0  0  0
   29.8113  -57.1964   -0.8800 O   0  5  0  0  0  0  0  0  0  0  0  0
   29.1096  -58.3553    1.3605 O   0  0  0  0  0  0  0  0  0  0  0  0
   28.4681  -59.4770   -0.7396 O   0  0  0  0  0  0  0  0  0  0  0  0
   30.1428  -61.4007    0.0975 H   0  0  0  0  0  0  0  0  0  0  0  0
   32.2537  -62.6838    0.1487 H   0  0  0  0  0  0  0  0  0  0  0  0
   32.3751  -57.9038   -0.0935 H   0  0  0  0  0  0  0  0  0  0  0  0
   34.7821  -57.9363   -0.1131 H   0  0  0  0  0  0  0  0  0  0  0  0
   36.8380  -62.8487    0.1289 H   0  0  0  0  0  0  0  0  0  0  0  0
   33.5738  -65.3523    0.1107 H   0  0  0  0  0  0  0  0  0  0  0  0
   33.4975  -67.8210    0.0606 H   0  0  0  0  0  0  0  0  0  0  0  0
   37.6532  -67.8778    0.0095 H   0  0  0  0  0  0  0  0  0  0  0  0
   38.0099  -64.3228    0.0733 H   0  0  0  0  0  0  0  0  0  0  0  0
   38.6682  -65.5510   -0.7775 H   0  0  0  0  0  0  0  0  0  0  0  0
   38.6919  -65.5836    0.8548 H   0  0  0  0  0  0  0  0  0  0  0  0
   36.4021  -69.9061   -0.0181 H   0  0  0  0  0  0  0  0  0  0  0  0
   34.9797  -69.8483   -0.8173 H   0  0  0  0  0  0  0  0  0  0  0  0
   34.9982  -69.8833    0.8150 H   0  0  0  0  0  0  0  0  0  0  0  0
  1  2  2  0  0  0  0
  1  4  1  0  0  0  0
  2  3  1  0  0  0  0
  3  6  2  0  0  0  0
  5  4  2  0  0  0  0
  5  6  1  0  0  0  0
  7  8  1  0  0  0  0
  5 10  1  0  0  0  0
  6  9  1  0  0  0  0
  9  7  2  0  0  0  0
  8 10  2  0  0  0  0
  7 11  1  0  0  0  0
  9 12  1  0  0  0  0
 12 13  2  0  0  0  0
  1 14  1  0  0  0  0
  8 15  1  0  0  0  0
 13 16  1  0  0  0  0
 16 17  2  0  0  0  0
 17 18  1  0  0  0  0
 18 19  2  0  0  0  0
 19 20  1  0  0  0  0
 20 21  2  0  0  0  0
 21 16  1  0  0  0  0
 21 22  1  0  0  0  0
 19 23  1  0  0  0  0
 15 24  1  0  0  0  0
 15 25  2  0  0  0  0
 15 26  2  0  0  0  0
 14 27  1  0  0  0  0
 14 28  2  0  0  0  0
 14 29  2  0  0  0  0
  2 30  1  0  0  0  0
  3 31  1  0  0  0  0
  4 32  1  0  0  0  0
 10 33  1  0  0  0  0
 11 34  1  0  0  0  0
 17 35  1  0  0  0  0
 18 36  1  0  0  0  0
 20 37  1  0  0  0  0
 22 38  1  0  0  0  0
 22 39  1  0  0  0  0
 22 40  1  0  0  0  0
 23 41  1  0  0  0  0
 23 42  1  0  0  0  0
 23 43  1  0  0  0  0
M  END
>  <Substance ID> (420)
420

>  <Mouse_Female_Canc> (420)
3

>  <SAL> (420)
3

>  <Rat_Male_Canc> (420)
3

>  <TD50_Rat> (420)
415

>  <TD50_Mouse> (420)
716

>  <Rat_Female_Canc> (420)
3

>  <Canc> (420)
3

>  <MolWeight> (420)
480.42

>  <Mouse_Male_Canc> (420)
3

>  <Mouse_Male_NTP> (420)
ND

>  <ChemName> (420)
D&C Red no. 5

>  <Rat_Male_NTP> (420)
ND

>  <Reference> (420)
CPDB

>  <Formula> (420)
C18H14N2O7S2Na2 

>  <SMILES> (420)
[Na+].[O-]S(=O)(=O)c1ccc3c(c1)cc(c(O)c3/N=N/c2ccc(cc2C)C)S([O-])(=O)=O.[Na+]

>  <Rat_Female_NTP> (420)
ND

>  <CAS> (420)
3761-53-3

>  <Mouse_Female_NTP> (420)
ND

>  <Synonyms> (420)
Ponceau G, R, 2R; C.I. Food Red 5; Ponceau MX; Ponceau 2R; Ponceau R; Xylidine ponceau 2R; C.I. 16150; C.I. acid red 26; 4-((2,4-dimethylphenyl)azo)-3-hydroxy-2,7-naphthalenedisulfonic acid, disodium salt; 3-hydroxy-4-(2,4-xylylazo)-2,7-naphthalenedisulfonic acid, disodium salt; 1-xylylazo-2-naphthol-3,6-disulfonic acid disodium salt; acetacid red j; acidal ponceau g; acid leather red kpr; acid leather red p2R; acid leather scarlet irw; acid ponceau r; acid ponceau 2RL; acid ponceau special; acid red 26; acid scarlet; acid scarlet 2b; acid scarlet 2bn; acid scarlet 2R; acid scarlet 2R for lakes; acid scarlet 2R for lakes bluish; acid scarlet 2RL; acid scarlet 2RN; acilan ponceau rrl; ahcocid fast scarlet r; aizen ponceau rh; amacid lake scarlet 2R; amacid scarlet 2R; brilliant ponceau g; calcocid 2RIL; calcocid scarlet 2R; calcocid scarlet 2RIL; calcolake scarlet 2R; certicol ponceau mxs; C.I. 79; C.I. acid red 26, disodium salt; colacid ponceau special; comacid scarlet 2R; disodium 1-(2,4-dimethylphenylazo)-2-hydroxynaphthalene-3,6-disulfonate; disodium salt of 1-(2,4-xylylazo)-2-naphthol-3,6-disulfonic acid; edicol ponceau rs; edicol supra ponceau r; fenazo scarlet 2R; food red no. 101; hexacol ponceau mx; hexacol ponceau 2R; hidacid scarlet 2R; hispacid ponceau r; java ponceau 2R; kiton ponceau r; kiton ponceau 2R; kiton scarlet 2RC; lake ponceau; lake scarlet r; lake scarlet 2RBN; naphthalene lake scarlet r; naphthalene scarlet r; naphthazine scarlet 2R; neklacid red rr; new ponceau 4R; paper red hrr; pigment ponceau r; ponceau bna; ponceau fr; ponceau g; ponceau gr; ponceau j; ponceau nr; ponceau pxm; ponceau rg; ponceau 2RL; ponceau rs; ponceau rr; ponceau rr type 8019; ponceau 2RX; ponceau xylidine; 1695 red; red for lakes j; RED R; scarlet r; scarlet 2R; scarlet 2RB; scarlet 2RL; scarlet 2RL bluish; scarlet rra; schultz no. 95; tetracid ponceau 2R; xylidine ponceau; xylidine ponceau 3RS; xylidine red; 1-(2,4-xylylazo)-2-naphthol-3,6-disulfonic acid disodium salt; Disodium 3-hydroxy-4-(2,4-dimethylphenylazo)-2,7-naphthalenesulfonate; 3-Hydroxy-4-(2,4-dimethylphenylazo)-2,7-naphthalenedisulfonic acid disodium salt.

$$$$
421


 85 89  0  0  0  0  0  0  0  0999 V2000
   46.9818  -75.0279    0.0839 C   0  0  0  0  0  0  0  0  0  0  0  0
   47.3863  -76.2734   -0.0040 C   0  0  0  0  0  0  0  0  0  0  0  0
   49.7118  -75.6737    0.1612 C   0  0  0  0  0  0  0  0  0  0  0  0
   49.2882  -74.2660    0.2722 C   0  0  0  0  0  0  0  0  0  0  0  0
   48.7701  -76.6045    0.0334 C   0  0  0  0  0  0  0  0  0  0  0  0
   47.9894  -73.9589    0.2316 C   0  0  0  0  0  0  0  0  0  0  0  0
   46.2801  -67.8294   -0.3777 C   0  0  0  0  0  0  0  0  0  0  0  0
   46.4013  -68.9238    0.3798 C   0  0  0  0  0  0  0  0  0  0  0  0
   48.7678  -68.4673    0.8088 C   0  0  0  0  0  0  0  0  0  0  0  0
   48.6398  -67.2557   -0.0064 C   0  0  0  0  0  0  0  0  0  0  0  0
   47.7098  -69.2609    0.9907 C   0  0  0  0  0  0  0  0  0  0  0  0
   47.4683  -66.9623   -0.5787 C   0  0  0  0  0  0  0  0  0  0  0  0
   41.0750  -73.0235    0.1916 C   0  0  0  0  0  0  0  0  0  0  0  0
   40.7506  -74.4945    0.1622 C   0  0  0  0  0  0  0  0  0  0  0  0
   41.7555  -75.4024    0.1144 C   0  0  0  0  0  0  0  0  0  0  0  0
   43.2009  -74.9400    0.1578 C   0  0  0  0  0  0  0  0  0  0  0  0
   43.4207  -73.5745    0.4577 C   0  0  0  0  0  0  0  0  0  0  0  0
   42.4549  -72.7066    0.4619 C   0  0  0  0  0  0  0  0  0  0  0  0
   40.9629  -70.5622   -0.0638 C   0  0  0  0  0  0  0  0  0  0  0  0
   41.8609  -70.3901   -1.0608 C   0  0  0  0  0  0  0  0  0  0  0  0
   42.7835  -69.2866   -1.0933 C   0  0  0  0  0  0  0  0  0  0  0  0
   42.7553  -68.3787   -0.1339 C   0  0  0  0  0  0  0  0  0  0  0  0
   41.6776  -68.4468    0.9031 C   0  0  0  0  0  0  0  0  0  0  0  0
   40.8192  -69.4812    0.9333 C   0  0  0  0  0  0  0  0  0  0  0  0
   35.8447  -72.1648   -0.1223 C   0  0  0  0  0  0  0  0  0  0  0  0
   36.6245  -73.3819    0.0200 C   0  0  0  0  0  0  0  0  0  0  0  0
   37.9540  -73.3262    0.0546 C   0  0  0  0  0  0  0  0  0  0  0  0
   38.6805  -72.0379   -0.0486 C   0  0  0  0  0  0  0  0  0  0  0  0
   37.9518  -70.9254   -0.1891 C   0  0  0  0  0  0  0  0  0  0  0  0
   36.4695  -70.9912   -0.2285 C   0  0  0  0  0  0  0  0  0  0  0  0
   40.2268  -71.9474    0.0390 C   0  0  0  0  0  0  0  0  0  0  0  0
   43.7721  -67.3821   -0.0972 N   0  0  0  0  0  0  0  0  0  0  0  0
   44.3006  -75.5975   -0.0724 N   0  3  0  0  0  0  0  0  0  0  0  0
   43.6751  -66.3149    0.8796 C   0  0  0  0  0  0  0  0  0  0  0  0
   44.4418  -65.0486    0.4164 C   0  0  0  0  0  0  0  0  0  0  0  0
   44.9200  -67.4329   -1.0422 C   0  0  0  0  0  0  0  0  0  0  0  0
   45.5164  -74.6529    0.0337 C   0  0  0  0  0  0  0  0  0  0  0  0
   44.3939  -77.0472   -0.4809 C   0  0  0  0  0  0  0  0  0  0  0  0
   43.5333  -78.0474    0.3287 C   0  0  0  0  0  0  0  0  0  0  0  0
   34.0677  -72.2600   -0.1462 S   0  0  0  0  0  0  0  0  0  0  0  0
   50.0331  -66.1517   -0.2119 S   0  0  0  0  0  0  0  0  0  0  0  0
   49.0527  -78.2838   -0.1509 S   0  0  0  0  0  0  0  0  0  0  0  0
   33.4198  -70.9644   -1.0330 O   0  5  0  0  0  0  0  0  0  0  0  0
   33.5527  -72.1799    1.2789 O   0  0  0  0  0  0  0  0  0  0  0  0
   33.6312  -73.5882   -0.7362 O   0  0  0  0  0  0  0  0  0  0  0  0
   51.3034  -66.9482   -1.0160 O   0  5  0  0  0  0  0  0  0  0  0  0
   50.5409  -65.7293    1.1548 O   0  0  0  0  0  0  0  0  0  0  0  0
   49.5999  -64.9318   -1.0028 O   0  0  0  0  0  0  0  0  0  0  0  0
   47.4501  -78.7217   -0.6949 O   0  5  0  0  0  0  0  0  0  0  0  0
   49.3617  -78.9139    1.1927 O   0  0  0  0  0  0  0  0  0  0  0  0
   50.1632  -78.5500   -1.1501 O   0  0  0  0  0  0  0  0  0  0  0  0
   46.7095  -77.0035   -0.0990 H   0  0  0  0  0  0  0  0  0  0  0  0
   50.6802  -75.9220    0.1815 H   0  0  0  0  0  0  0  0  0  0  0  0
   49.9714  -73.5434    0.3776 H   0  0  0  0  0  0  0  0  0  0  0  0
   47.6991  -73.0045    0.3012 H   0  0  0  0  0  0  0  0  0  0  0  0
   45.6098  -69.5150    0.5346 H   0  0  0  0  0  0  0  0  0  0  0  0
   49.6457  -68.6989    1.2278 H   0  0  0  0  0  0  0  0  0  0  0  0
   47.8004  -70.0894    1.5433 H   0  0  0  0  0  0  0  0  0  0  0  0
   47.3908  -66.1461   -1.1511 H   0  0  0  0  0  0  0  0  0  0  0  0
   39.7984  -74.7993    0.1780 H   0  0  0  0  0  0  0  0  0  0  0  0
   41.5448  -76.3779    0.0504 H   0  0  0  0  0  0  0  0  0  0  0  0
   44.3482  -73.2687    0.6730 H   0  0  0  0  0  0  0  0  0  0  0  0
   42.6837  -71.7548    0.6663 H   0  0  0  0  0  0  0  0  0  0  0  0
   41.8844  -71.0570   -1.8055 H   0  0  0  0  0  0  0  0  0  0  0  0
   43.4440  -69.2070   -1.8399 H   0  0  0  0  0  0  0  0  0  0  0  0
   41.5954  -67.7155    1.5802 H   0  0  0  0  0  0  0  0  0  0  0  0
   40.0939  -69.5184    1.6207 H   0  0  0  0  0  0  0  0  0  0  0  0
   36.1609  -74.2650    0.0921 H   0  0  0  0  0  0  0  0  0  0  0  0
   38.4754  -74.1738    0.1525 H   0  0  0  0  0  0  0  0  0  0  0  0
   38.4102  -70.0402   -0.2685 H   0  0  0  0  0  0  0  0  0  0  0  0
   35.9367  -70.1517   -0.3351 H   0  0  0  0  0  0  0  0  0  0  0  0
   42.7117  -66.0814    1.0110 H   0  0  0  0  0  0  0  0  0  0  0  0
   44.0630  -66.6309    1.7455 H   0  0  0  0  0  0  0  0  0  0  0  0
   44.3554  -64.3336    1.1102 H   0  0  0  0  0  0  0  0  0  0  0  0
   44.0570  -64.7226   -0.4471 H   0  0  0  0  0  0  0  0  0  0  0  0
   45.4080  -65.2719    0.2872 H   0  0  0  0  0  0  0  0  0  0  0  0
   44.7111  -68.1040   -1.7535 H   0  0  0  0  0  0  0  0  0  0  0  0
   45.0252  -66.5290   -1.4567 H   0  0  0  0  0  0  0  0  0  0  0  0
   45.4366  -74.0467   -0.7575 H   0  0  0  0  0  0  0  0  0  0  0  0
   45.3594  -74.1303    0.8718 H   0  0  0  0  0  0  0  0  0  0  0  0
   44.1145  -77.1117   -1.4390 H   0  0  0  0  0  0  0  0  0  0  0  0
   45.3498  -77.3272   -0.3924 H   0  0  0  0  0  0  0  0  0  0  0  0
   43.6730  -78.9716   -0.0264 H   0  0  0  0  0  0  0  0  0  0  0  0
   42.5678  -77.8010    0.2450 H   0  0  0  0  0  0  0  0  0  0  0  0
   43.8026  -78.0164    1.2913 H   0  0  0  0  0  0  0  0  0  0  0  0
  1  2  2  0  0  0  0
  3  4  1  0  0  0  0
  1  6  1  0  0  0  0
  2  5  1  0  0  0  0
  5  3  2  0  0  0  0
  4  6  2  0  0  0  0
  7  8  2  0  0  0  0
  9 10  1  0  0  0  0
  7 12  1  0  0  0  0
  8 11  1  0  0  0  0
 11  9  2  0  0  0  0
 10 12  2  0  0  0  0
 13 14  1  0  0  0  0
 13 18  1  0  0  0  0
 14 15  2  0  0  0  0
 15 16  1  0  0  0  0
 16 17  1  0  0  0  0
 17 18  2  0  0  0  0
 19 20  2  0  0  0  0
 19 24  1  0  0  0  0
 20 21  1  0  0  0  0
 21 22  2  0  0  0  0
 22 23  1  0  0  0  0
 23 24  2  0  0  0  0
 25 26  1  0  0  0  0
 25 30  2  0  0  0  0
 26 27  2  0  0  0  0
 27 28  1  0  0  0  0
 28 29  2  0  0  0  0
 29 30  1  0  0  0  0
 28 31  1  0  0  0  0
 31 19  1  0  0  0  0
 31 13  2  0  0  0  0
 22 32  1  0  0  0  0
 16 33  2  0  0  0  0
 32 34  1  0  0  0  0
 34 35  1  0  0  0  0
 32 36  1  0  0  0  0
 36  7  1  0  0  0  0
 33 37  1  0  0  0  0
 37  1  1  0  0  0  0
 33 38  1  0  0  0  0
 38 39  1  0  0  0  0
 25 40  1  0  0  0  0
 10 41  1  0  0  0  0
  5 42  1  0  0  0  0
 40 43  1  0  0  0  0
 40 44  2  0  0  0  0
 40 45  2  0  0  0  0
 41 46  1  0  0  0  0
 41 47  2  0  0  0  0
 41 48  2  0  0  0  0
 42 49  1  0  0  0  0
 42 50  2  0  0  0  0
 42 51  2  0  0  0  0
  2 52  1  0  0  0  0
  3 53  1  0  0  0  0
  4 54  1  0  0  0  0
  6 55  1  0  0  0  0
  8 56  1  0  0  0  0
  9 57  1  0  0  0  0
 11 58  1  0  0  0  0
 12 59  1  0  0  0  0
 14 60  1  0  0  0  0
 15 61  1  0  0  0  0
 17 62  1  0  0  0  0
 18 63  1  0  0  0  0
 20 64  1  0  0  0  0
 21 65  1  0  0  0  0
 23 66  1  0  0  0  0
 24 67  1  0  0  0  0
 26 68  1  0  0  0  0
 27 69  1  0  0  0  0
 29 70  1  0  0  0  0
 30 71  1  0  0  0  0
 34 72  1  0  0  0  0
 34 73  1  0  0  0  0
 35 74  1  0  0  0  0
 35 75  1  0  0  0  0
 35 76  1  0  0  0  0
 36 77  1  0  0  0  0
 36 78  1  0  0  0  0
 37 79  1  0  0  0  0
 37 80  1  0  0  0  0
 38 81  1  0  0  0  0
 38 82  1  0  0  0  0
 39 83  1  0  0  0  0
 39 84  1  0  0  0  0
 39 85  1  0  0  0  0
M  END
>  <Substance ID> (421)
421

>  <Mouse_Female_Canc> (421)
1

>  <SAL> (421)
1

>  <Rat_Male_Canc> (421)
3

>  <TD50_Rat> (421)
5640

>  <TD50_Mouse> (421)
NP

>  <Rat_Female_Canc> (421)
3

>  <Canc> (421)
3

>  <MolWeight> (421)
815.84

>  <Mouse_Male_Canc> (421)
1

>  <Mouse_Male_NTP> (421)
ND

>  <ChemName> (421)
FD & C Green No. 2

>  <Rat_Male_NTP> (421)
ND

>  <Reference> (421)
CPDB

>  <Formula> (421)
C37H34N2O9S3Na3 

>  <SMILES> (421)
[Na+].[O-]S(=O)(=O)c1cccc(c1)CN(c2ccc(cc2)\C(=C\4/C=C\C(=[N+](\CC)Cc3cccc(c3)S([O-].[Na+])(=O)=O)/C=C/4)c5ccc(cc5)S([O-])(=O)=O)CC.[Na+]

>  <Rat_Female_NTP> (421)
ND

>  <CAS> (421)
5141-20-8

>  <Mouse_Female_NTP> (421)
ND

>  <Synonyms> (421)
Acid brilliant green SF; Acid Green 5; Acid Green F; Benzenemethanaminium,N-ethyl-N-[4-[[4-[ethyl[(3-sulfophenyl)methyl]amino]phenyl](4-sulfophenyl)methylene]-2,5-cyclohexadien-1-ylidene]-3-sulfo-,hydroxide,inner salt,disodium salt; Benzenemethanaminium, N-ethyl-N-[4-[[4-[ethyl[(3-sulfophenyl)methyl]amino]phenyl](4-sulfophenyl)methylene]-2,5-cyclohexadien-1-ylidene]-3-sulfo-, inner salt, disodium salt; Bis[4-(N-ethyl-N-3-sulfophenylmethyl)aminophenyl]-4-sulfophenylmethylium disodium salt; Disodium bis[4-(N-ethyl-N-3-sulfonatophenylmethyl)aminophenyl]-4-sulfonatophenylmethylium; C.I. 42095; C.I. ACID GREEN #5; Fast Acid Green N; Light Green 2G; Light Green 2GN; Light Green S; Light Green SF; Light green SF yellowish; Light Green SF, Yellowish, high purity biological stain.

$$$$
422


 33 34  0  0  0  0  0  0  0  0999 V2000
   36.3086  -89.3726   -0.0358 C   0  0  0  0  0  0  0  0  0  0  0  0
   37.5228  -89.9169   -0.0939 C   0  0  0  0  0  0  0  0  0  0  0  0
   38.5892  -87.7282    0.0827 C   0  0  0  0  0  0  0  0  0  0  0  0
   37.2414  -87.1629    0.1390 C   0  0  0  0  0  0  0  0  0  0  0  0
   38.7417  -89.0722   -0.0337 C   0  0  0  0  0  0  0  0  0  0  0  0
   36.1670  -87.9383    0.0835 C   0  0  0  0  0  0  0  0  0  0  0  0
   27.7018  -91.1766   -0.0014 N   0  0  0  0  0  0  0  0  0  0  0  0
   28.7122  -91.9553   -0.0186 C   0  0  0  0  0  0  0  0  0  0  0  0
   30.2431  -90.0958   -0.0040 C   0  0  0  0  0  0  0  0  0  0  0  0
   29.0697  -89.2340    0.0160 C   0  0  0  0  0  0  0  0  0  0  0  0
   30.0773  -91.4137   -0.0214 C   0  0  0  0  0  0  0  0  0  0  0  0
   27.8557  -89.7783    0.0160 C   0  0  0  0  0  0  0  0  0  0  0  0
   31.5771  -89.4910   -0.0035 C   0  0  0  0  0  0  0  0  0  0  0  0
   32.7760  -90.2802   -0.0454 N   0  0  0  0  0  0  0  0  0  0  0  0
   33.9732  -89.6069   -0.0304 N   0  0  0  0  0  0  0  0  0  0  0  0
   35.0974  -90.1998   -0.0824 C   0  0  0  0  0  0  0  0  0  0  0  0
   31.6780  -88.2609    0.0327 O   0  0  0  0  0  0  0  0  0  0  0  0
   39.6467  -86.8151    0.1548 O   0  0  0  0  0  0  0  0  0  0  0  0
   40.0005  -89.7872   -0.1048 O   0  0  0  0  0  0  0  0  0  0  0  0
   41.2227  -89.0333   -0.0492 C   0  0  0  0  0  0  0  0  0  0  0  0
   37.6145  -90.9090   -0.1794 H   0  0  0  0  0  0  0  0  0  0  0  0
   37.1280  -86.1728    0.2209 H   0  0  0  0  0  0  0  0  0  0  0  0
   35.2553  -87.5295    0.1242 H   0  0  0  0  0  0  0  0  0  0  0  0
   28.5732  -92.9455   -0.0303 H   0  0  0  0  0  0  0  0  0  0  0  0
   29.1756  -88.2398    0.0298 H   0  0  0  0  0  0  0  0  0  0  0  0
   30.8678  -92.0260   -0.0361 H   0  0  0  0  0  0  0  0  0  0  0  0
   27.0474  -89.1896    0.0283 H   0  0  0  0  0  0  0  0  0  0  0  0
   32.7409  -91.2789   -0.0840 H   0  0  0  0  0  0  0  0  0  0  0  0
   35.1538  -91.1958   -0.1526 H   0  0  0  0  0  0  0  0  0  0  0  0
   40.5161  -87.3069    0.1077 H   0  0  0  0  0  0  0  0  0  0  0  0
   42.0024  -89.6566   -0.1088 H   0  0  0  0  0  0  0  0  0  0  0  0
   41.2649  -88.5290    0.8134 H   0  0  0  0  0  0  0  0  0  0  0  0
   41.2526  -88.3889   -0.8134 H   0  0  0  0  0  0  0  0  0  0  0  0
  1  2  2  0  0  0  0
  3  4  1  0  0  0  0
  1  6  1  0  0  0  0
  2  5  1  0  0  0  0
  5  3  2  0  0  0  0
  4  6  2  0  0  0  0
  7  8  2  0  0  0  0
  9 10  1  0  0  0  0
  7 12  1  0  0  0  0
  8 11  1  0  0  0  0
 11  9  2  0  0  0  0
 10 12  2  0  0  0  0
  9 13  1  0  0  0  0
 13 14  1  0  0  0  0
 14 15  1  0  0  0  0
 15 16  2  0  0  0  0
 16  1  1  0  0  0  0
 13 17  2  0  0  0  0
  3 18  1  0  0  0  0
  5 19  1  0  0  0  0
 19 20  1  0  0  0  0
  2 21  1  0  0  0  0
  4 22  1  0  0  0  0
  6 23  1  0  0  0  0
  8 24  1  0  0  0  0
 10 25  1  0  0  0  0
 11 26  1  0  0  0  0
 12 27  1  0  0  0  0
 14 28  1  0  0  0  0
 16 29  1  0  0  0  0
 18 30  1  0  0  0  0
 20 31  1  0  0  0  0
 20 32  1  0  0  0  0
 20 33  1  0  0  0  0
M  END
>  <Substance ID> (422)
422

>  <Mouse_Female_Canc> (422)
3

>  <SAL> (422)
ND

>  <Rat_Male_Canc> (422)
ND

>  <TD50_Rat> (422)
ND

>  <TD50_Mouse> (422)
27.4

>  <Rat_Female_Canc> (422)
ND

>  <Canc> (422)
3

>  <MolWeight> (422)
271.28

>  <Mouse_Male_Canc> (422)
3

>  <Mouse_Male_NTP> (422)
ND

>  <ChemName> (422)
Isonicotinic acid vanillylidenehydrazide

>  <Rat_Male_NTP> (422)
ND

>  <Reference> (422)
CPDB

>  <Formula> (422)
C14H13N3O3

>  <SMILES> (422)
COC1=C(O)C=CC(=C1)C=NNC(=O)C2=CC=NC=C2

>  <Rat_Female_NTP> (422)
ND

>  <CAS> (422)
149-17-7

>  <Mouse_Female_NTP> (422)
ND

>  <Synonyms> (422)
Ftivazide; Phtivazid.

$$$$
423


 21 21  0  0  0  0  0  0  0  0999 V2000
    5.1192   -4.7606   -0.0022 C   0  0  0  0  0  0  0  0  0  0  0  0
    5.3777   -6.0645    0.0259 C   0  0  0  0  0  0  0  0  0  0  0  0
    6.7857   -6.2424    0.0951 N   0  0  0  0  0  0  0  0  0  0  0  0
    7.3489   -5.0983    0.1102 C   0  0  0  0  0  0  0  0  0  0  0  0
    6.3240   -4.0660    0.0389 N   0  0  0  0  0  0  0  0  0  0  0  0
    8.8603   -4.9823    0.1973 C   0  0  0  0  0  0  0  0  0  0  0  0
    6.4001   -2.5736    0.0204 C   0  0  0  0  0  0  0  0  0  0  0  0
    7.7415   -1.8811    0.3417 C   0  0  0  0  0  0  0  0  0  0  0  0
    8.7026   -2.1990   -0.6606 O   0  0  0  0  0  0  0  0  0  0  0  0
    3.7981   -4.2230   -0.0469 N   0  3  0  0  0  0  0  0  0  0  0  0
    3.5643   -2.9144   -0.0790 O   0  5  0  0  0  0  0  0  0  0  0  0
    2.8845   -4.9626   -0.0404 O   0  0  0  0  0  0  0  0  0  0  0  0
    4.6965   -6.7962    0.0024 H   0  0  0  0  0  0  0  0  0  0  0  0
    9.1215   -4.0170    0.1975 H   0  0  0  0  0  0  0  0  0  0  0  0
    9.2760   -5.4394   -0.5890 H   0  0  0  0  0  0  0  0  0  0  0  0
    9.1802   -5.4139    1.0407 H   0  0  0  0  0  0  0  0  0  0  0  0
    6.1327   -2.2795   -0.8972 H   0  0  0  0  0  0  0  0  0  0  0  0
    5.7327   -2.2394    0.6858 H   0  0  0  0  0  0  0  0  0  0  0  0
    7.6054   -0.8908    0.3684 H   0  0  0  0  0  0  0  0  0  0  0  0
    8.0730   -2.1967    1.2308 H   0  0  0  0  0  0  0  0  0  0  0  0
    9.5691   -1.7478   -0.4472 H   0  0  0  0  0  0  0  0  0  0  0  0
  1  2  2  0  0  0  0
  3  4  2  0  0  0  0
  4  5  1  0  0  0  0
  5  1  1  0  0  0  0
  2  3  1  0  0  0  0
  4  6  1  0  0  0  0
  5  7  1  0  0  0  0
  7  8  1  0  0  0  0
  8  9  1  0  0  0  0
  1 10  1  0  0  0  0
 10 11  1  0  0  0  0
 10 12  2  0  0  0  0
  2 13  1  0  0  0  0
  6 14  1  0  0  0  0
  6 15  1  0  0  0  0
  6 16  1  0  0  0  0
  7 17  1  0  0  0  0
  7 18  1  0  0  0  0
  8 19  1  0  0  0  0
  8 20  1  0  0  0  0
  9 21  1  0  0  0  0
M  END
>  <Substance ID> (423)
423

>  <Mouse_Female_Canc> (423)
3

>  <SAL> (423)
3

>  <Rat_Male_Canc> (423)
3

>  <TD50_Rat> (423)
542

>  <TD50_Mouse> (423)
506

>  <Rat_Female_Canc> (423)
3

>  <Canc> (423)
3

>  <MolWeight> (423)
171.16

>  <Mouse_Male_Canc> (423)
3

>  <Mouse_Male_NTP> (423)
ND

>  <ChemName> (423)
Metronidazol

>  <Rat_Male_NTP> (423)
ND

>  <Reference> (423)
CPDB

>  <Formula> (423)
C6H9N3O3

>  <SMILES> (423)
N1(C(=CN=C1C)[N+](=O)[O-])CCO

>  <Rat_Female_NTP> (423)
ND

>  <CAS> (423)
443-48-1

>  <Mouse_Female_NTP> (423)
ND

>  <Synonyms> (423)
1-(2-hydroxy-1-ethyl)-2-methyl-5-nitroimidazole; 1-(2-hydroxyethyl)-2-methyl-5-nitroimidazole; 1-(beta-ethylol)-2-methyl-5-nitro-3-azapyrrole; 1-(beta-hydroxyethyl)-2-methyl-5-nitroimidazole; 1-hydroxyethyl-2-methyl-5-nitroimidazole; 2-methyl-1-(2-hydroxyethyl)-5-nitroimidazole; 2-methyl-3-(2-hydroxyethyl)-4-nitroimidazole; 2-Methyl-5-nitro-1-imidazoleethanol; 2-Methyl-5-nitroimidazole-1-ethanol; acromona; anagiardil; atrivyl; bayer 5360; Bexon; Clont; CONT; danizol; deflamon-wirkstoff; efloran; elyzol; entizol; Eumin; flagemona; flagesol; flagil; Flagyl; Flagyl 375; flegyl; giatricol; Gineflavir; giniflavir; Klion; meronidal; Methyl-5-nitroimidazole-1-ethanol; Metizol; Metric 21; Metrogel; Metrogyl; metronidaz; metronidazolo; METRONIDAZOLE USP; Metrozine; Metryl; monagyl; Nalox; neo-tric; NIDA; novonidazol; orvagil; Protostat; Rozex; rp 8823; sanatrichom; Satric; sc 10295; takimetol; trichazol; trichex; trichocide; trichomol; trichomonacid 'pharmachim'; trichopal; trichopol; tricocet; tricom; tricowas b; trikacide; trikamon; trikojol; trikozol; trimeks; trivazol; vagilen; vagimid; vertisal.

$$$$
424
  

 70 72  0  0  0  0  0  0  0  0999 V2000
   10.0472   -8.7628   -0.2075 N   0  0  0  0  0  0  0  0  0  0  0  0
   10.1884  -10.1764   -0.0863 C   0  0  0  0  0  0  0  0  0  0  0  0
   11.5086  -10.7748    0.3425 C   0  0  0  0  0  0  0  0  0  0  0  0
   12.6334   -9.8669    0.0066 N   0  0  0  0  0  0  0  0  0  0  0  0
   12.4209   -8.5204    0.6037 C   0  0  0  0  0  0  0  0  0  0  0  0
   11.1371   -7.9194    0.1326 C   0  0  0  0  0  0  0  0  0  0  0  0
   13.9490  -10.5437    0.3984 C   0  0  0  0  0  0  0  0  0  0  0  0
   15.3084   -9.8937   -0.1545 C   0  0  2  0  0  0  0  0  0  0  0  0
   16.4595  -10.7570    0.2077 N   0  0  0  0  0  0  0  0  0  0  0  0
   15.6329   -8.4829    0.4268 C   0  0  0  0  0  0  0  0  0  0  0  0
   16.2770  -12.1249   -0.3317 C   0  0  0  0  0  0  0  0  0  0  0  0
   17.4812  -12.9786   -0.0118 C   0  0  0  0  0  0  0  0  0  0  0  0
   18.7565  -12.3667    0.1917 N   0  0  0  0  0  0  0  0  0  0  0  0
   18.8970  -10.9575    0.0482 C   0  0  0  0  0  0  0  0  0  0  0  0
   17.7025  -10.1254   -0.2943 C   0  0  0  0  0  0  0  0  0  0  0  0
   11.0157   -6.6918    0.0736 O   0  0  0  0  0  0  0  0  0  0  0  0
    9.2208  -10.9101   -0.3116 O   0  0  0  0  0  0  0  0  0  0  0  0
   20.0027  -10.4262    0.1732 O   0  0  0  0  0  0  0  0  0  0  0  0
   17.3724  -14.2054    0.0461 O   0  0  0  0  0  0  0  0  0  0  0  0
   15.2541   -9.8347   -1.2502 H   0  0  0  0  0  0  0  0  0  0  0  0
    9.1867   -8.3684   -0.5298 H   0  0  0  0  0  0  0  0  0  0  0  0
   11.4939  -10.9264    1.3309 H   0  0  0  0  0  0  0  0  0  0  0  0
   11.6406  -11.6477   -0.1271 H   0  0  0  0  0  0  0  0  0  0  0  0
   12.3954   -8.6054    1.5998 H   0  0  0  0  0  0  0  0  0  0  0  0
   13.1777   -7.9228    0.3389 H   0  0  0  0  0  0  0  0  0  0  0  0
   14.0008  -10.5426    1.3971 H   0  0  0  0  0  0  0  0  0  0  0  0
   13.9113  -11.4865    0.0672 H   0  0  0  0  0  0  0  0  0  0  0  0
   16.4902   -8.1494    0.0347 H   0  0  0  0  0  0  0  0  0  0  0  0
   15.7232   -8.5442    1.4209 H   0  0  0  0  0  0  0  0  0  0  0  0
   14.8937   -7.8495    0.1981 H   0  0  0  0  0  0  0  0  0  0  0  0
   15.4630  -12.5356    0.0791 H   0  0  0  0  0  0  0  0  0  0  0  0
   16.1616  -12.0757   -1.3238 H   0  0  0  0  0  0  0  0  0  0  0  0
   19.5483  -12.9272    0.4344 H   0  0  0  0  0  0  0  0  0  0  0  0
   17.6435  -10.0302   -1.2880 H   0  0  0  0  0  0  0  0  0  0  0  0
   17.8023   -9.2218    0.1222 H   0  0  0  0  0  0  0  0  0  0  0  0
   23.2597  -16.0102    0.0912 N   0  0  0  0  0  0  0  0  0  0  0  0
   23.3675  -17.4082    0.3445 C   0  0  0  0  0  0  0  0  0  0  0  0
   24.6910  -18.1124    0.1913 C   0  0  0  0  0  0  0  0  0  0  0  0
   25.8300  -17.1612    0.2851 N   0  0  0  0  0  0  0  0  0  0  0  0
   25.6715  -16.0230   -0.6490 C   0  0  0  0  0  0  0  0  0  0  0  0
   24.3899  -15.2982   -0.3895 C   0  0  0  0  0  0  0  0  0  0  0  0
   27.1276  -17.9735    0.1839 C   0  0  0  0  0  0  0  0  0  0  0  0
   28.5206  -17.1970    0.1098 C   0  0  2  0  0  0  0  0  0  0  0  0
   29.6302  -18.1579    0.3279 N   0  0  0  0  0  0  0  0  0  0  0  0
   28.5676  -16.4461    0.9102 H   0  0  0  0  0  0  0  0  0  0  0  0
   29.5841  -19.2649   -0.6495 C   0  0  0  0  0  0  0  0  0  0  0  0
   30.7441  -20.2010   -0.4221 C   0  0  0  0  0  0  0  0  0  0  0  0
   31.9681  -19.6954    0.1125 N   0  0  0  0  0  0  0  0  0  0  0  0
   32.0899  -18.3119    0.4335 C   0  0  0  0  0  0  0  0  0  0  0  0
   30.9094  -17.4033    0.2742 C   0  0  0  0  0  0  0  0  0  0  0  0
   24.3027  -14.0886   -0.6344 O   0  0  0  0  0  0  0  0  0  0  0  0
   22.3626  -18.0501    0.6743 O   0  0  0  0  0  0  0  0  0  0  0  0
   33.1682  -17.8562    0.8156 O   0  0  0  0  0  0  0  0  0  0  0  0
   30.6506  -21.3892   -0.7315 O   0  0  0  0  0  0  0  0  0  0  0  0
   28.7870  -16.5225   -1.2813 C   0  0  0  0  0  0  0  0  0  0  0  0
   22.3948  -15.5344    0.2508 H   0  0  0  0  0  0  0  0  0  0  0  0
   24.7798  -18.7974    0.9145 H   0  0  0  0  0  0  0  0  0  0  0  0
   24.7173  -18.5634   -0.7008 H   0  0  0  0  0  0  0  0  0  0  0  0
   26.4363  -15.3903   -0.5274 H   0  0  0  0  0  0  0  0  0  0  0  0
   25.6691  -16.3673   -1.5878 H   0  0  0  0  0  0  0  0  0  0  0  0
   27.1653  -18.5674    0.9875 H   0  0  0  0  0  0  0  0  0  0  0  0
   27.0596  -18.5333   -0.6420 H   0  0  0  0  0  0  0  0  0  0  0  0
   28.7266  -19.7676   -0.5404 H   0  0  0  0  0  0  0  0  0  0  0  0
   29.6366  -18.8914   -1.5756 H   0  0  0  0  0  0  0  0  0  0  0  0
   32.7406  -20.3126    0.2617 H   0  0  0  0  0  0  0  0  0  0  0  0
   30.9749  -16.9374   -0.6082 H   0  0  0  0  0  0  0  0  0  0  0  0
   30.9186  -16.7267    1.0104 H   0  0  0  0  0  0  0  0  0  0  0  0
   29.6708  -16.0552   -1.2618 H   0  0  0  0  0  0  0  0  0  0  0  0
   28.0640  -15.8592   -1.4746 H   0  0  0  0  0  0  0  0  0  0  0  0
   28.7963  -17.2225   -1.9954 H   0  0  0  0  0  0  0  0  0  0  0  0
  1  2  1  0  0  0  0
  1  6  1  0  0  0  0
  2  3  1  0  0  0  0
  3  4  1  0  0  0  0
  4  5  1  0  0  0  0
  5  6  1  0  0  0  0
  4  7  1  0  0  0  0
  7  8  1  0  0  0  0
  8  9  1  0  0  0  0
  8 10  1  1  0  0  0
  9 11  1  0  0  0  0
  9 15  1  0  0  0  0
 11 12  1  0  0  0  0
 12 13  1  0  0  0  0
 13 14  1  0  0  0  0
 14 15  1  0  0  0  0
  6 16  2  0  0  0  0
  2 17  2  0  0  0  0
 14 18  2  0  0  0  0
 12 19  2  0  0  0  0
  8 20  1  6  0  0  0
  1 21  1  0  0  0  0
  3 22  1  0  0  0  0
  3 23  1  0  0  0  0
  5 24  1  0  0  0  0
  5 25  1  0  0  0  0
  7 26  1  0  0  0  0
  7 27  1  0  0  0  0
 10 28  1  0  0  0  0
 10 29  1  0  0  0  0
 10 30  1  0  0  0  0
 11 31  1  0  0  0  0
 11 32  1  0  0  0  0
 13 33  1  0  0  0  0
 15 34  1  0  0  0  0
 15 35  1  0  0  0  0
 36 37  1  0  0  0  0
 36 41  1  0  0  0  0
 37 38  1  0  0  0  0
 38 39  1  0  0  0  0
 39 40  1  0  0  0  0
 40 41  1  0  0  0  0
 39 42  1  0  0  0  0
 42 43  1  0  0  0  0
 43 44  1  0  0  0  0
 43 45  1  1  0  0  0
 44 46  1  0  0  0  0
 44 50  1  0  0  0  0
 46 47  1  0  0  0  0
 47 48  1  0  0  0  0
 48 49  1  0  0  0  0
 49 50  1  0  0  0  0
 41 51  2  0  0  0  0
 37 52  2  0  0  0  0
 49 53  2  0  0  0  0
 47 54  2  0  0  0  0
 43 55  1  6  0  0  0
 36 56  1  0  0  0  0
 38 57  1  0  0  0  0
 38 58  1  0  0  0  0
 40 59  1  0  0  0  0
 40 60  1  0  0  0  0
 42 61  1  0  0  0  0
 42 62  1  0  0  0  0
 46 63  1  0  0  0  0
 46 64  1  0  0  0  0
 48 65  1  0  0  0  0
 50 66  1  0  0  0  0
 50 67  1  0  0  0  0
 55 68  1  0  0  0  0
 55 69  1  0  0  0  0
 55 70  1  0  0  0  0
M  END
>  <Substance ID> (424)
424

>  <Mouse_Female_Canc> (424)
3

>  <SAL> (424)
ND

>  <Rat_Male_Canc> (424)
1

>  <TD50_Rat> (424)
10.7

>  <TD50_Mouse> (424)
23.7

>  <Rat_Female_Canc> (424)
3

>  <Canc> (424)
3

>  <MolWeight> (424)
268.27

>  <Mouse_Male_Canc> (424)
1

>  <Mouse_Male_NTP> (424)
ND

>  <ChemName> (424)
ICRF-159

>  <Rat_Male_NTP> (424)
ND

>  <Reference> (424)
NTP78

>  <Formula> (424)
C11H16N4O4.C11H16N4O4

>  <SMILES> (424)
O=C1NC(=O)CN(C1)C[C@H](N2CC(=O)NC(=O)C2)C.O=C2NC(=O)CN(C[C@@H](N1CC(=O)NC(=O)C1)C)C2

>  <Rat_Female_NTP> (424)
ND

>  <CAS> (424)
21416-87-5

>  <Mouse_Female_NTP> (424)
ND

>  <Synonyms> (424)
(+-)-1,2-Bis(3,5-dioxopiperazinyl)propane; (+-)-(3,5,3',5'-Tetraoxo)-1,2-dipiperazinopropane; 2,6-Piperazinedione, 4,4'-(1-methyl-1,2-ethanediyl)bis-, (+-)-; 2,6-Piperazinedione, 4,4'-propylenedi-; 2,6-Piperazinedione, 4,4'-propylenedi-, (+-)-; Propane, (+-)-1,2-bis(3,5-dioxopiperazin-1-yl)-; Razoxane; Razoxin.

$$$$
425
  

 12 11  0  0  0  0  0  0  0  0999 V2000
   12.2636  -14.9602    0.0002 Cl  0  0  0  0  0  0  0  0  0  1  0  0
   14.0191  -15.1585   -0.0000 C   0  0  0  0  0  0  0  0  0  2  0  0
   14.6748  -13.8087    0.0001 C   0  0  0  0  0  0  0  0  0  3  0  0
   16.0024  -13.7144    0.0001 C   0  0  0  0  0  0  0  0  0  4  0  0
   16.6581  -12.3645    0.0003 C   0  0  0  0  0  0  0  0  0  5  0  0
   18.4135  -12.5628    0.0004 Cl  0  0  0  0  0  0  0  0  0  6  0  0
   14.2974  -15.6643    0.8165 H   0  0  0  0  0  0  0  0  0  0  0  0
   14.2973  -15.6640   -0.8168 H   0  0  0  0  0  0  0  0  0  0  0  0
   14.1144  -12.9804    0.0002 H   0  0  0  0  0  0  0  0  0  0  0  0
   16.5627  -14.5427   -0.0000 H   0  0  0  0  0  0  0  0  0  0  0  0
   16.3799  -11.8588   -0.8164 H   0  0  0  0  0  0  0  0  0  0  0  0
   16.3797  -11.8590    0.8169 H   0  0  0  0  0  0  0  0  0  0  0  0
  1  2  1  0  0  0  0
  2  3  1  0  0  0  0
  3  4  2  0  0  0  0
  4  5  1  0  0  0  0
  5  6  1  0  0  0  0
  2  7  1  0  0  0  0
  2  8  1  0  0  0  0
  3  9  1  0  0  0  0
  4 10  1  0  0  0  0
  5 11  1  0  0  0  0
  5 12  1  0  0  0  0
M  END
>  <Substance ID> (425)
425

>  <Mouse_Female_Canc> (425)
3

>  <SAL> (425)
3

>  <Rat_Male_Canc> (425)
ND

>  <TD50_Rat> (425)
ND

>  <TD50_Mouse> (425)
1.52

>  <Rat_Female_Canc> (425)
ND

>  <Canc> (425)
3

>  <MolWeight> (425)
125.00

>  <Mouse_Male_Canc> (425)
ND

>  <Mouse_Male_NTP> (425)
ND

>  <ChemName> (425)
(E)-1,4-dichloro-2-Butene

>  <Rat_Male_NTP> (425)
ND

>  <Reference> (425)
CPDB

>  <Formula> (425)
C4H6Cl2

>  <SMILES> (425)
ClC/C=C/CCl

>  <Rat_Female_NTP> (425)
ND

>  <CAS> (425)
110-57-6

>  <Mouse_Female_NTP> (425)
ND

>  <Synonyms> (425)
trans-1,4-Dichloro-2-butene; trans-1,4-Dichlorobutene; trans-1,4-Dichlorobutene-2.

$$$$
426


 82 86  0  0  0  0  0  0  0  0999 V2000
   17.4448  -28.5002    0.5939 C   0  0  0  0  0  0  0  0  0  0  0  0
   17.0601  -27.3771   -0.0053 C   0  0  0  0  0  0  0  0  0  0  0  0
   14.7858  -28.2029   -0.3349 C   0  0  0  0  0  0  0  0  0  0  0  0
   15.2144  -29.4503    0.3412 C   0  0  0  0  0  0  0  0  0  0  0  0
   15.6860  -27.2339   -0.4959 C   0  0  0  0  0  0  0  0  0  0  0  0
   16.4765  -29.5832    0.7719 C   0  0  0  0  0  0  0  0  0  0  0  0
   15.5191  -35.1104   -0.2413 C   0  0  0  0  0  0  0  0  0  0  0  0
   16.8481  -35.2260   -0.1715 C   0  0  0  0  0  0  0  0  0  0  0  0
   17.0427  -32.9570    0.5852 C   0  0  0  0  0  0  0  0  0  0  0  0
   15.5908  -32.8898    0.5462 C   0  0  0  0  0  0  0  0  0  0  0  0
   17.6534  -34.0822    0.2425 C   0  0  0  0  0  0  0  0  0  0  0  0
   14.8638  -33.9280    0.1447 C   0  0  0  0  0  0  0  0  0  0  0  0
    9.6393  -29.7672   -1.1929 C   0  0  0  0  0  0  0  0  0  0  0  0
   10.7595  -28.8800   -1.1853 C   0  0  0  0  0  0  0  0  0  0  0  0
   10.9903  -28.1047   -0.1362 C   0  0  0  0  0  0  0  0  0  0  0  0
    9.9755  -28.0156    0.9542 C   0  0  0  0  0  0  0  0  0  0  0  0
    8.9402  -28.8726    0.9713 C   0  0  0  0  0  0  0  0  0  0  0  0
    8.8340  -29.8746   -0.1174 C   0  0  0  0  0  0  0  0  0  0  0  0
    8.8837  -32.2992    0.1782 C   0  0  0  0  0  0  0  0  0  0  0  0
    9.6568  -34.6616    0.0992 C   0  0  0  0  0  0  0  0  0  0  0  0
   11.2384  -32.7697    0.4926 C   0  0  0  0  0  0  0  0  0  0  0  0
   10.2407  -31.9479    0.4869 C   0  0  0  0  0  0  0  0  0  0  0  0
    4.4052  -32.4272   -0.0071 C   0  0  0  0  0  0  0  0  0  0  0  0
    5.7373  -32.4663    0.0238 C   0  0  0  0  0  0  0  0  0  0  0  0
    5.8820  -30.0673   -0.2528 C   0  0  0  0  0  0  0  0  0  0  0  0
    4.4140  -30.0274   -0.2954 C   0  0  0  0  0  0  0  0  0  0  0  0
    6.5315  -31.2308   -0.1005 C   0  0  0  0  0  0  0  0  0  0  0  0
    3.7101  -31.1496   -0.1709 C   0  0  0  0  0  0  0  0  0  0  0  0
    8.0417  -31.2051    0.0096 C   0  0  0  0  0  0  0  0  0  0  0  0
   11.0881  -34.1217    0.1779 C   0  0  0  0  0  0  0  0  0  0  0  0
   12.2255  -34.7254   -0.0066 N   0  3  0  0  0  0  0  0  0  0  0  0
   12.3362  -36.1348   -0.3702 C   0  0  0  0  0  0  0  0  0  0  0  0
   13.3783  -33.7461    0.1808 C   0  0  0  0  0  0  0  0  0  0  0  0
   12.2598  -27.4718   -0.0662 N   0  0  0  0  0  0  0  0  0  0  0  0
   12.4878  -26.3927    0.8653 C   0  0  0  0  0  0  0  0  0  0  0  0
   13.3454  -28.0354   -0.9395 C   0  0  0  0  0  0  0  0  0  0  0  0
    8.5979  -33.7894    0.1407 C   0  0  0  0  0  0  0  0  0  0  0  0
   12.8706  -36.9793    0.8022 C   0  0  0  0  0  0  0  0  0  0  0  0
   13.0366  -25.1518    0.1124 C   0  0  0  0  0  0  0  0  0  0  0  0
   18.1915  -26.0360   -0.2256 S   0  0  0  0  0  0  0  0  0  0  0  0
   19.5361  -26.5573   -1.1271 O   0  5  0  0  0  0  0  0  0  0  0  0
   18.6786  -25.5654    1.1315 O   0  0  0  0  0  0  0  0  0  0  0  0
   17.4731  -24.9102   -0.9450 O   0  0  0  0  0  0  0  0  0  0  0  0
   17.6067  -36.7748   -0.6216 S   0  0  0  0  0  0  0  0  0  0  0  0
   15.8685  -37.0615   -0.4246 O   0  5  0  0  0  0  0  0  0  0  0  0
   18.2605  -37.5988    0.4545 O   0  0  0  0  0  0  0  0  0  0  0  0
   18.6354  -35.6830   -0.8699 O   0  0  0  0  0  0  0  0  0  0  0  0
   18.3848  -28.6036    0.9191 H   0  0  0  0  0  0  0  0  0  0  0  0
   14.5602  -30.1945    0.4763 H   0  0  0  0  0  0  0  0  0  0  0  0
   15.4184  -26.3904   -0.9617 H   0  0  0  0  0  0  0  0  0  0  0  0
   16.7596  -30.4313    1.2197 H   0  0  0  0  0  0  0  0  0  0  0  0
   14.9782  -35.8823   -0.5755 H   0  0  0  0  0  0  0  0  0  0  0  0
   17.5765  -32.1602    0.8684 H   0  0  0  0  0  0  0  0  0  0  0  0
   15.1306  -32.0474    0.8265 H   0  0  0  0  0  0  0  0  0  0  0  0
   18.6510  -34.1462    0.2674 H   0  0  0  0  0  0  0  0  0  0  0  0
    9.4503  -30.3159   -2.0072 H   0  0  0  0  0  0  0  0  0  0  0  0
   11.3716  -28.8441   -1.9752 H   0  0  0  0  0  0  0  0  0  0  0  0
   10.0653  -27.3216    1.6686 H   0  0  0  0  0  0  0  0  0  0  0  0
    8.2574  -28.8355    1.7009 H   0  0  0  0  0  0  0  0  0  0  0  0
    9.4947  -35.6450    0.0179 H   0  0  0  0  0  0  0  0  0  0  0  0
   12.1471  -32.4262    0.7300 H   0  0  0  0  0  0  0  0  0  0  0  0
   10.4290  -30.9927    0.7154 H   0  0  0  0  0  0  0  0  0  0  0  0
    3.8793  -33.2731    0.0820 H   0  0  0  0  0  0  0  0  0  0  0  0
    6.2034  -33.3443    0.1326 H   0  0  0  0  0  0  0  0  0  0  0  0
    6.4026  -29.2178   -0.3382 H   0  0  0  0  0  0  0  0  0  0  0  0
    3.9423  -29.1542   -0.4183 H   0  0  0  0  0  0  0  0  0  0  0  0
    2.7107  -31.1203   -0.1891 H   0  0  0  0  0  0  0  0  0  0  0  0
   11.4327  -36.4752   -0.6305 H   0  0  0  0  0  0  0  0  0  0  0  0
   12.9619  -36.2222   -1.1453 H   0  0  0  0  0  0  0  0  0  0  0  0
   13.2102  -33.0495   -0.5168 H   0  0  0  0  0  0  0  0  0  0  0  0
   13.2114  -33.3578    1.0871 H   0  0  0  0  0  0  0  0  0  0  0  0
   11.6262  -26.1542    1.3134 H   0  0  0  0  0  0  0  0  0  0  0  0
   13.1526  -26.6837    1.5533 H   0  0  0  0  0  0  0  0  0  0  0  0
   13.0437  -28.9411   -1.2372 H   0  0  0  0  0  0  0  0  0  0  0  0
   13.4273  -27.4331   -1.7335 H   0  0  0  0  0  0  0  0  0  0  0  0
    7.6572  -34.1288    0.1461 H   0  0  0  0  0  0  0  0  0  0  0  0
   12.9346  -37.9370    0.5218 H   0  0  0  0  0  0  0  0  0  0  0  0
   12.2479  -36.9013    1.5808 H   0  0  0  0  0  0  0  0  0  0  0  0
   13.7767  -36.6485    1.0661 H   0  0  0  0  0  0  0  0  0  0  0  0
   13.1922  -24.4085    0.7630 H   0  0  0  0  0  0  0  0  0  0  0  0
   12.3729  -24.8584   -0.5757 H   0  0  0  0  0  0  0  0  0  0  0  0
   13.8988  -25.3877   -0.3359 H   0  0  0  0  0  0  0  0  0  0  0  0
  1  2  2  0  0  0  0
  3  4  1  0  0  0  0
  1  6  1  0  0  0  0
  2  5  1  0  0  0  0
  5  3  2  0  0  0  0
  4  6  2  0  0  0  0
  7  8  2  0  0  0  0
  9 10  1  0  0  0  0
  7 12  1  0  0  0  0
  8 11  1  0  0  0  0
 11  9  2  0  0  0  0
 10 12  2  0  0  0  0
 13 14  1  0  0  0  0
 13 18  2  0  0  0  0
 14 15  2  0  0  0  0
 15 16  1  0  0  0  0
 16 17  2  0  0  0  0
 19 22  1  0  0  0  0
 37 20  2  0  0  0  0
 20 30  1  0  0  0  0
 21 22  2  0  0  0  0
 23 24  2  0  0  0  0
 25 26  1  0  0  0  0
 23 28  1  0  0  0  0
 24 27  1  0  0  0  0
 27 25  2  0  0  0  0
 26 28  2  0  0  0  0
 27 29  1  0  0  0  0
 29 18  1  0  0  0  0
 29 19  2  0  0  0  0
 17 18  1  0  0  0  0
 21 30  1  0  0  0  0
 30 31  2  0  0  0  0
 31 32  1  0  0  0  0
 31 33  1  0  0  0  0
 33 12  1  0  0  0  0
 15 34  1  0  0  0  0
 34 35  1  0  0  0  0
 34 36  1  0  0  0  0
 36  3  1  0  0  0  0
 19 37  1  0  0  0  0
 32 38  1  0  0  0  0
 35 39  1  0  0  0  0
  2 40  1  0  0  0  0
 40 41  1  0  0  0  0
 40 42  2  0  0  0  0
 40 43  2  0  0  0  0
 44 45  1  0  0  0  0
 44 46  2  0  0  0  0
 44 47  2  0  0  0  0
  8 44  1  0  0  0  0
  1 48  1  0  0  0  0
  4 49  1  0  0  0  0
  5 50  1  0  0  0  0
  6 51  1  0  0  0  0
  7 52  1  0  0  0  0
  9 53  1  0  0  0  0
 10 54  1  0  0  0  0
 11 55  1  0  0  0  0
 13 56  1  0  0  0  0
 14 57  1  0  0  0  0
 16 58  1  0  0  0  0
 17 59  1  0  0  0  0
 20 60  1  0  0  0  0
 21 61  1  0  0  0  0
 22 62  1  0  0  0  0
 23 63  1  0  0  0  0
 24 64  1  0  0  0  0
 25 65  1  0  0  0  0
 26 66  1  0  0  0  0
 28 67  1  0  0  0  0
 32 68  1  0  0  0  0
 32 69  1  0  0  0  0
 33 70  1  0  0  0  0
 33 71  1  0  0  0  0
 35 72  1  0  0  0  0
 35 73  1  0  0  0  0
 36 74  1  0  0  0  0
 36 75  1  0  0  0  0
 37 76  1  0  0  0  0
 38 77  1  0  0  0  0
 38 78  1  0  0  0  0
 38 79  1  0  0  0  0
 39 80  1  0  0  0  0
 39 81  1  0  0  0  0
 39 82  1  0  0  0  0
M  END
>  <Substance ID> (426)
426

>  <Mouse_Female_Canc> (426)
1

>  <SAL> (426)
ND

>  <Rat_Male_Canc> (426)
3

>  <TD50_Rat> (426)
6060

>  <TD50_Mouse> (426)
NP

>  <Rat_Female_Canc> (426)
3

>  <Canc> (426)
3

>  <MolWeight> (426)
713.82

>  <Mouse_Male_Canc> (426)
1

>  <Mouse_Male_NTP> (426)
ND

>  <ChemName> (426)
FD & C Green No. 1

>  <Rat_Male_NTP> (426)
ND

>  <Reference> (426)
CPDB

>  <Formula> (426)
C37H35N2O6S2Na2

>  <SMILES> (426)
[Na+].[O-]S(=O)(=O)c1cccc(c1)CN(c2ccc(cc2)C(=C\4/C=C\C(=[N+](\CC)Cc3cccc(c3)S([O-])(=O)=O)/C=C/4)\c5ccccc5)CC.[Na+]

>  <Rat_Female_NTP> (426)
ND

>  <CAS> (426)
4680-78-8

>  <Mouse_Female_NTP> (426)
ND

>  <Synonyms> (426)
C.I. Acid Green 3; C.I. ACID GREEN 3, MONOSODIUM SALT; Guinea green B; Benzenemethanaminium, N-ethyl-N-[4-[[4-[ethyl[(3-sulfophenyl)methyl]amino]phenyl]phenylmethylene]-2,5-cyclohexadien-1-ylidene]-3-sulfo-, inner salt, sodium salt.

$$$$
427


 23 24  0  0  0  0  0  0  0  0999 V2000
    1.4087  -42.6012    0.0675 C   0  0  0  0  0  0  0  0  0  0  0  0
    1.8380  -44.0155    0.0981 O   0  0  0  0  0  0  0  0  0  0  0  0
    2.6227  -41.7630   -0.0160 O   0  0  0  0  0  0  0  0  0  0  0  0
    3.6293  -42.6885   -0.0313 C   0  0  0  0  0  0  0  0  0  0  0  0
    3.2012  -43.9196    0.0321 C   0  0  0  0  0  0  0  0  0  0  0  0
    5.4299  -44.7917   -0.0453 C   0  0  0  0  0  0  0  0  0  0  0  0
    5.9148  -43.3921   -0.1267 C   0  0  0  0  0  0  0  0  0  0  0  0
    4.1213  -45.0441    0.0300 C   0  0  0  0  0  0  0  0  0  0  0  0
    5.0443  -42.3807   -0.1154 C   0  0  0  0  0  0  0  0  0  0  0  0
    7.3839  -43.1104   -0.2412 C   0  0  2  0  0  0  0  0  0  0  0  0
    8.2775  -44.1533    0.1614 O   0  0  0  0  0  0  0  0  0  0  0  0
    7.8155  -41.6951    0.0193 C   0  0  0  0  0  0  0  0  0  0  0  0
    9.1068  -41.4086    0.1667 C   0  0  0  0  0  0  0  0  0  0  0  0
    0.8280  -42.4392   -0.7303 H   0  0  0  0  0  0  0  0  0  0  0  0
    0.9005  -42.3819    0.9003 H   0  0  0  0  0  0  0  0  0  0  0  0
    6.0847  -45.5476   -0.0469 H   0  0  0  0  0  0  0  0  0  0  0  0
    3.7827  -45.9835    0.0836 H   0  0  0  0  0  0  0  0  0  0  0  0
    5.3599  -41.4331   -0.1639 H   0  0  0  0  0  0  0  0  0  0  0  0
    7.5100  -43.1581   -1.2321 H   0  0  0  0  0  0  0  0  0  0  0  0
    9.2222  -43.8488    0.0398 H   0  0  0  0  0  0  0  0  0  0  0  0
    7.1320  -40.9679    0.0821 H   0  0  0  0  0  0  0  0  0  0  0  0
    9.3932  -40.4663    0.3401 H   0  0  0  0  0  0  0  0  0  0  0  0
    9.7906  -42.1355    0.1040 H   0  0  0  0  0  0  0  0  0  0  0  0
  1  2  1  0  0  0  0
  2  5  1  0  0  0  0
  4  3  1  0  0  0  0
  3  1  1  0  0  0  0
  4  5  2  0  0  0  0
  6  7  1  0  0  0  0
  4  9  1  0  0  0  0
  5  8  1  0  0  0  0
  8  6  2  0  0  0  0
  7  9  2  0  0  0  0
  7 10  1  0  0  0  0
 10 11  1  0  0  0  0
 10 12  1  0  0  0  0
 12 13  2  0  0  0  0
  1 14  1  0  0  0  0
  1 15  1  0  0  0  0
  6 16  1  0  0  0  0
  8 17  1  0  0  0  0
  9 18  1  0  0  0  0
 10 19  1  0  0  0  0
 11 20  1  0  0  0  0
 12 21  1  0  0  0  0
 13 22  1  0  0  0  0
 13 23  1  0  0  0  0
M  END
>  <Substance ID> (427)
427

>  <Mouse_Female_Canc> (427)
3

>  <SAL> (427)
1

>  <Rat_Male_Canc> (427)
3

>  <TD50_Rat> (427)
18.4

>  <TD50_Mouse> (427)
71.2

>  <Rat_Female_Canc> (427)
ND

>  <Canc> (427)
3

>  <MolWeight> (427)
178.19

>  <Mouse_Male_Canc> (427)
3

>  <Mouse_Male_NTP> (427)
ND

>  <ChemName> (427)
1'-Hydroxysafrole

>  <Rat_Male_NTP> (427)
ND

>  <Reference> (427)
CPDB

>  <Formula> (427)
C10H10O3

>  <SMILES> (427)
OC(C=C)C1=CC=C2OCOC2=C1

>  <Rat_Female_NTP> (427)
ND

>  <CAS> (427)
5208-87-7

>  <Mouse_Female_NTP> (427)
ND

>  <Synonyms> (427)
-

$$$$
428
 

 19 18  0  0  0  0  0  0  0  0999 V2000
    2.7391  -51.6335    0.1710 O   0  0  0  0  0  0  0  0  0  0  0  0
    3.4593  -52.5108   -0.1529 N   0  0  0  0  0  0  0  0  0  0  0  0
    4.7771  -52.3590   -0.0512 N   0  0  0  0  0  0  0  0  0  0  0  0
    5.3086  -51.1094    0.4737 C   0  0  0  0  0  0  0  0  0  0  0  0
    5.6404  -53.4596   -0.4721 C   0  0  0  0  0  0  0  0  0  0  0  0
    6.4067  -50.5477   -0.4045 C   0  0  0  0  0  0  0  0  0  0  0  0
    6.8823  -53.5801    0.3845 C   0  0  0  0  0  0  0  0  0  0  0  0
    7.0687  -49.4565   -0.0285 C   0  0  0  0  0  0  0  0  0  0  0  0
    7.8152  -54.4804    0.0813 C   0  0  0  0  0  0  0  0  0  0  0  0
    4.5667  -50.4413    0.5299 H   0  0  0  0  0  0  0  0  0  0  0  0
    5.6790  -51.2747    1.3877 H   0  0  0  0  0  0  0  0  0  0  0  0
    5.1242  -54.3139   -0.4107 H   0  0  0  0  0  0  0  0  0  0  0  0
    5.9184  -53.3050   -1.4201 H   0  0  0  0  0  0  0  0  0  0  0  0
    6.6347  -50.9974   -1.2681 H   0  0  0  0  0  0  0  0  0  0  0  0
    7.0021  -52.9837    1.1782 H   0  0  0  0  0  0  0  0  0  0  0  0
    7.7938  -49.0865   -0.6094 H   0  0  0  0  0  0  0  0  0  0  0  0
    6.8413  -49.0063    0.8349 H   0  0  0  0  0  0  0  0  0  0  0  0
    8.6358  -54.5601    0.6472 H   0  0  0  0  0  0  0  0  0  0  0  0
    7.6953  -55.0768   -0.7123 H   0  0  0  0  0  0  0  0  0  0  0  0
  1  2  2  0  0  0  0
  2  3  1  0  0  0  0
  3  4  1  0  0  0  0
  3  5  1  0  0  0  0
  4  6  1  0  0  0  0
  5  7  1  0  0  0  0
  6  8  2  0  0  0  0
  7  9  2  0  0  0  0
  4 10  1  0  0  0  0
  4 11  1  0  0  0  0
  5 12  1  0  0  0  0
  5 13  1  0  0  0  0
  6 14  1  0  0  0  0
  7 15  1  0  0  0  0
  8 16  1  0  0  0  0
  8 17  1  0  0  0  0
  9 18  1  0  0  0  0
  9 19  1  0  0  0  0
M  END
>  <Substance ID> (428)
428

>  <Mouse_Female_Canc> (428)
ND

>  <SAL> (428)
ND

>  <Rat_Male_Canc> (428)
3

>  <TD50_Rat> (428)
33.9

>  <TD50_Mouse> (428)
ND

>  <Rat_Female_Canc> (428)
3

>  <Canc> (428)
3

>  <MolWeight> (428)
126.16

>  <Mouse_Male_Canc> (428)
ND

>  <Mouse_Male_NTP> (428)
ND

>  <ChemName> (428)
Diallylnitrosamine

>  <Rat_Male_NTP> (428)
ND

>  <Reference> (428)
CPDB

>  <Formula> (428)
C6H10N2O

>  <SMILES> (428)
C=CCN(CC=C)N=O

>  <Rat_Female_NTP> (428)
ND

>  <CAS> (428)
16338-97-9

>  <Mouse_Female_NTP> (428)
ND

>  <Synonyms> (428)
N-Nitrosodiallyl amine.

$$$$
429


 29 31  0  0  0  0  0  0  0  0999 V2000
    2.2581  -54.9804    0.0042 C   0  0  0  0  0  0  0  0  0  0  0  0
    1.7665  -56.2283   -0.0106 C   0  0  0  0  0  0  0  0  0  0  0  0
    2.6804  -57.3947   -0.0144 C   0  0  0  0  0  0  0  0  0  0  0  0
    3.7113  -54.7597    0.0108 C   0  0  0  0  0  0  0  0  0  0  0  0
    4.4909  -55.8338    0.0049 C   0  0  0  0  0  0  0  0  0  0  0  0
    3.9810  -57.1414   -0.0041 C   0  0  0  0  0  0  0  0  0  0  0  0
    5.0493  -58.0581   -0.0012 N   0  0  0  0  0  0  0  0  0  0  0  0
    5.9266  -55.9545    0.0038 C   0  0  0  0  0  0  0  0  0  0  0  0
    6.2233  -57.2408    0.0033 C   0  0  0  0  0  0  0  0  0  0  0  0
    8.5403  -56.7317    0.0008 C   0  0  0  0  0  0  0  0  0  0  0  0
    8.1942  -55.3344   -0.0043 N   0  0  0  0  0  0  0  0  0  0  0  0
    7.5893  -57.6719    0.0049 C   0  0  0  0  0  0  0  0  0  0  0  0
    6.9789  -54.9363   -0.0009 C   0  0  0  0  0  0  0  0  0  0  0  0
    6.6842  -53.4583   -0.0064 C   0  0  0  0  0  0  0  0  0  0  0  0
    9.8830  -57.1077    0.0013 N   0  0  0  0  0  0  0  0  0  0  0  0
    7.9380  -59.1309    0.0109 C   0  0  0  0  0  0  0  0  0  0  0  0
    1.6346  -54.1985    0.0109 H   0  0  0  0  0  0  0  0  0  0  0  0
    0.7770  -56.3725   -0.0191 H   0  0  0  0  0  0  0  0  0  0  0  0
    2.3311  -58.3317   -0.0244 H   0  0  0  0  0  0  0  0  0  0  0  0
    4.0971  -53.8371    0.0192 H   0  0  0  0  0  0  0  0  0  0  0  0
    4.9989  -59.0568   -0.0021 H   0  0  0  0  0  0  0  0  0  0  0  0
    7.5434  -52.9466   -0.0090 H   0  0  0  0  0  0  0  0  0  0  0  0
    6.1574  -53.2199    0.8095 H   0  0  0  0  0  0  0  0  0  0  0  0
    6.1561  -53.2263   -0.8233 H   0  0  0  0  0  0  0  0  0  0  0  0
   10.1309  -58.0764    0.0048 H   0  0  0  0  0  0  0  0  0  0  0  0
   10.5980  -56.4086   -0.0020 H   0  0  0  0  0  0  0  0  0  0  0  0
    8.9324  -59.2365    0.0113 H   0  0  0  0  0  0  0  0  0  0  0  0
    7.5571  -59.5685   -0.8037 H   0  0  0  0  0  0  0  0  0  0  0  0
    7.5573  -59.5618    0.8291 H   0  0  0  0  0  0  0  0  0  0  0  0
  1  2  2  0  0  0  0
  1  4  1  0  0  0  0
  2  3  1  0  0  0  0
  3  6  2  0  0  0  0
  5  4  2  0  0  0  0
  5  6  1  0  0  0  0
  6  7  1  0  0  0  0
  7  9  1  0  0  0  0
  5  8  1  0  0  0  0
  8  9  2  0  0  0  0
 10 11  1  0  0  0  0
  8 13  1  0  0  0  0
  9 12  1  0  0  0  0
 12 10  2  0  0  0  0
 11 13  2  0  0  0  0
 13 14  1  0  0  0  0
 10 15  1  0  0  0  0
 12 16  1  0  0  0  0
  1 17  1  0  0  0  0
  2 18  1  0  0  0  0
  3 19  1  0  0  0  0
  4 20  1  0  0  0  0
  7 21  1  0  0  0  0
 14 22  1  0  0  0  0
 14 23  1  0  0  0  0
 14 24  1  0  0  0  0
 15 25  1  0  0  0  0
 15 26  1  0  0  0  0
 16 27  1  0  0  0  0
 16 28  1  0  0  0  0
 16 29  1  0  0  0  0
M  END
>  <Substance ID> (429)
429

>  <Mouse_Female_Canc> (429)
3

>  <SAL> (429)
3

>  <Rat_Male_Canc> (429)
3

>  <TD50_Rat> (429)
0.575

>  <TD50_Mouse> (429)
40.7

>  <Rat_Female_Canc> (429)
3

>  <Canc> (429)
3

>  <MolWeight> (429)
211.27

>  <Mouse_Male_Canc> (429)
3

>  <Mouse_Male_NTP> (429)
ND

>  <ChemName> (429)
3-Amino-1,4-dimethyl-5H-pyrido[4,3-b]indole acetate

>  <Rat_Male_NTP> (429)
ND

>  <Reference> (429)
CPDB

>  <Formula> (429)
C13H13N3

>  <SMILES> (429)
N1C2=C(C3=C1C=CC=C3)C(=NC(=C2C)N)C

>  <Rat_Female_NTP> (429)
ND

>  <CAS> (429)
75104-43-7

>  <Mouse_Female_NTP> (429)
ND

>  <Synonyms> (429)
Trp-p-1 acetate.

$$$$
430


 14 13  0  0  0  0  0  0  0  0999 V2000
    4.4600  -72.3201   -0.1365 N   0  3  0  0  0  0  0  0  0  0  0  0
    3.1397  -72.4840   -0.6792 C   0  0  0  0  0  0  0  0  0  0  0  0
    2.2234  -73.1250    0.3805 C   0  0  0  0  0  0  0  0  0  0  0  0
    4.7518  -71.2544    0.5969 O   0  5  0  0  0  0  0  0  0  0  0  0
    5.3063  -73.1580   -0.3509 N   0  0  0  0  0  0  0  0  0  0  0  0
    6.6262  -73.0019    0.1890 C   0  0  0  0  0  0  0  0  0  0  0  0
    2.7734  -71.5907   -0.9396 H   0  0  0  0  0  0  0  0  0  0  0  0
    3.1817  -73.0752   -1.4846 H   0  0  0  0  0  0  0  0  0  0  0  0
    1.3047  -73.2389    0.0024 H   0  0  0  0  0  0  0  0  0  0  0  0
    2.1808  -72.5344    1.1863 H   0  0  0  0  0  0  0  0  0  0  0  0
    2.5890  -74.0185    0.6414 H   0  0  0  0  0  0  0  0  0  0  0  0
    7.1926  -73.7795   -0.0840 H   0  0  0  0  0  0  0  0  0  0  0  0
    6.5760  -72.9609    1.1869 H   0  0  0  0  0  0  0  0  0  0  0  0
    7.0314  -72.1565   -0.1590 H   0  0  0  0  0  0  0  0  0  0  0  0
  1  2  1  0  0  0  0
  2  3  1  0  0  0  0
  1  4  1  0  0  0  0
  1  5  2  0  0  0  0
  5  6  1  0  0  0  0
  2  7  1  0  0  0  0
  2  8  1  0  0  0  0
  3  9  1  0  0  0  0
  3 10  1  0  0  0  0
  3 11  1  0  0  0  0
  6 12  1  0  0  0  0
  6 13  1  0  0  0  0
  6 14  1  0  0  0  0
M  END
>  <Substance ID> (430)
430

>  <Mouse_Female_Canc> (430)
ND

>  <SAL> (430)
ND

>  <Rat_Male_Canc> (430)
3

>  <TD50_Rat> (430)
0.0189

>  <TD50_Mouse> (430)
ND

>  <Rat_Female_Canc> (430)
ND

>  <Canc> (430)
3

>  <MolWeight> (430)
88.11

>  <Mouse_Male_Canc> (430)
ND

>  <Mouse_Male_NTP> (430)
ND

>  <ChemName> (430)
Z-ethyl-O,N,N-azoxymethane

>  <Rat_Male_NTP> (430)
ND

>  <Reference> (430)
CPDB

>  <Formula> (430)
C3H8N2O

>  <SMILES> (430)
[N+](=N/C)(/CC)[O-]

>  <Rat_Female_NTP> (430)
ND

>  <CAS> (430)
57497-29-7

>  <Mouse_Female_NTP> (430)
ND

>  <Synonyms> (430)
-

$$$$
431


 17 16  0  0  0  0  0  0  0  0999 V2000
    4.7420  -89.1198    0.0050 N   0  3  0  0  0  0  0  0  0  0  0  0
    3.5579  -89.7939    0.4602 C   0  0  0  0  0  0  0  0  0  0  0  0
    2.3096  -89.0890   -0.1033 C   0  0  0  0  0  0  0  0  0  0  0  0
    4.6401  -88.0328   -0.7458 O   0  5  0  0  0  0  0  0  0  0  0  0
    5.8331  -89.5458    0.3028 N   0  0  0  0  0  0  0  0  0  0  0  0
    7.0137  -88.8721   -0.1561 C   0  0  0  0  0  0  0  0  0  0  0  0
    8.2540  -89.6886    0.2375 C   0  0  0  0  0  0  0  0  0  0  0  0
    3.5741  -90.7429    0.1454 H   0  0  0  0  0  0  0  0  0  0  0  0
    3.5279  -89.7742    1.4596 H   0  0  0  0  0  0  0  0  0  0  0  0
    1.4875  -89.5607    0.2154 H   0  0  0  0  0  0  0  0  0  0  0  0
    2.3380  -89.1083   -1.1027 H   0  0  0  0  0  0  0  0  0  0  0  0
    2.2918  -88.1398    0.2111 H   0  0  0  0  0  0  0  0  0  0  0  0
    6.9784  -88.7782   -1.1511 H   0  0  0  0  0  0  0  0  0  0  0  0
    7.0645  -87.9657    0.2631 H   0  0  0  0  0  0  0  0  0  0  0  0
    9.0774  -89.2197   -0.0820 H   0  0  0  0  0  0  0  0  0  0  0  0
    8.2035  -90.5952   -0.1814 H   0  0  0  0  0  0  0  0  0  0  0  0
    8.2896  -89.7829    1.2324 H   0  0  0  0  0  0  0  0  0  0  0  0
  1  2  1  0  0  0  0
  2  3  1  0  0  0  0
  1  4  1  0  0  0  0
  1  5  2  0  0  0  0
  5  6  1  0  0  0  0
  6  7  1  0  0  0  0
  2  8  1  0  0  0  0
  2  9  1  0  0  0  0
  3 10  1  0  0  0  0
  3 11  1  0  0  0  0
  3 12  1  0  0  0  0
  6 13  1  0  0  0  0
  6 14  1  0  0  0  0
  7 15  1  0  0  0  0
  7 16  1  0  0  0  0
  7 17  1  0  0  0  0
M  END
>  <Substance ID> (431)
431

>  <Mouse_Female_Canc> (431)
ND

>  <SAL> (431)
1

>  <Rat_Male_Canc> (431)
3

>  <TD50_Rat> (431)
0.022

>  <TD50_Mouse> (431)
ND

>  <Rat_Female_Canc> (431)
ND

>  <Canc> (431)
3

>  <MolWeight> (431)
102.14

>  <Mouse_Male_Canc> (431)
ND

>  <Mouse_Male_NTP> (431)
ND

>  <ChemName> (431)
Z-ethyl-O,N,N-azoxyethane

>  <Rat_Male_NTP> (431)
ND

>  <Reference> (431)
CPDB

>  <Formula> (431)
C4H10N2O

>  <SMILES> (431)
[N+](=N/CC)(/CC)[O-]

>  <Rat_Female_NTP> (431)
ND

>  <CAS> (431)
16301-26-1

>  <Mouse_Female_NTP> (431)
ND

>  <Synonyms> (431)
Azoxyethane; Diazene, diethyl-, 1-oxide.

$$$$
432


 19 20  0  0  0  0  0  0  0  0999 V2000
   31.1051   -2.9694   -0.0022 C   0  0  0  0  0  0  0  0  0  0  0  0
   31.9308   -4.1455    0.0031 N   0  0  0  0  0  0  0  0  0  0  0  0
   33.1790   -3.8641    0.0008 C   0  0  0  0  0  0  0  0  0  0  0  0
   33.4777   -2.1478   -0.0104 S   0  0  0  0  0  0  0  0  0  0  0  0
   31.7737   -1.8108   -0.0092 C   0  0  0  0  0  0  0  0  0  0  0  0
   28.8710   -4.2124   -0.0009 O   0  0  0  0  0  0  0  0  0  0  0  0
   29.6364   -3.0158    0.0008 C   0  0  0  0  0  0  0  0  0  0  0  0
   28.8911   -1.9177    0.0047 C   0  0  0  0  0  0  0  0  0  0  0  0
   27.5363   -2.3404    0.0064 C   0  0  0  0  0  0  0  0  0  0  0  0
   27.5550   -3.6662    0.0022 C   0  0  0  0  0  0  0  0  0  0  0  0
   34.1976   -4.8215    0.0075 N   0  0  0  0  0  0  0  0  0  0  0  0
   26.3905   -4.4324   -0.0001 N   0  3  0  0  0  0  0  0  0  0  0  0
   25.2099   -3.8315    0.0078 O   0  5  0  0  0  0  0  0  0  0  0  0
   26.4553   -5.6044   -0.0104 O   0  0  0  0  0  0  0  0  0  0  0  0
   31.3604   -0.9002   -0.0131 H   0  0  0  0  0  0  0  0  0  0  0  0
   29.2209   -0.9736    0.0062 H   0  0  0  0  0  0  0  0  0  0  0  0
   26.7266   -1.7536    0.0101 H   0  0  0  0  0  0  0  0  0  0  0  0
   35.1550   -4.5329    0.0052 H   0  0  0  0  0  0  0  0  0  0  0  0
   33.9688   -5.7949    0.0146 H   0  0  0  0  0  0  0  0  0  0  0  0
  1  2  1  0  0  0  0
  2  3  2  0  0  0  0
  3  4  1  0  0  0  0
  4  5  1  0  0  0  0
  5  1  2  0  0  0  0
  9 10  2  0  0  0  0
  7  8  2  0  0  0  0
  6  7  1  0  0  0  0
  8  9  1  0  0  0  0
 10  6  1  0  0  0  0
  7  1  1  0  0  0  0
  3 11  1  0  0  0  0
 10 12  1  0  0  0  0
 12 13  1  0  0  0  0
 12 14  2  0  0  0  0
  5 15  1  0  0  0  0
  8 16  1  0  0  0  0
  9 17  1  0  0  0  0
 11 18  1  0  0  0  0
 11 19  1  0  0  0  0
M  END
>  <Substance ID> (432)
432

>  <Mouse_Female_Canc> (432)
3

>  <SAL> (432)
3

>  <Rat_Male_Canc> (432)
ND

>  <TD50_Rat> (432)
5.85

>  <TD50_Mouse> (432)
7.87

>  <Rat_Female_Canc> (432)
3

>  <Canc> (432)
3

>  <MolWeight> (432)
211.19

>  <Mouse_Male_Canc> (432)
ND

>  <Mouse_Male_NTP> (432)
ND

>  <ChemName> (432)
2-Amino-4-(5-nitro-2-furyl)thiazole

>  <Rat_Male_NTP> (432)
ND

>  <Reference> (432)
CPDB

>  <Formula> (432)
C7H5N3O3S

>  <SMILES> (432)
[O-][N+](=O)c2oc(c1nc(sc1)N)cc2

>  <Rat_Female_NTP> (432)
ND

>  <CAS> (432)
38514-71-5

>  <Mouse_Female_NTP> (432)
ND

>  <Synonyms> (432)
-

$$$$
433


 31 31  0  0  0  0  0  0  0  0999 V2000
   14.5357  -11.9159    0.6646 C   0  0  0  0  0  0  0  0  0  0  0  0
   14.5140  -13.0965    0.0600 C   0  0  0  0  0  0  0  0  0  0  0  0
   15.6740  -13.5344   -0.7200 C   0  0  0  0  0  0  0  0  0  0  0  0
   16.7428  -12.7464   -0.8280 C   0  0  0  0  0  0  0  0  0  0  0  0
   16.7793  -11.4303   -0.1732 C   0  0  0  0  0  0  0  0  0  0  0  0
   15.7035  -11.0554    0.5455 C   0  0  0  0  0  0  0  0  0  0  0  0
   13.1191  -14.1070    0.1938 Cl  0  0  0  0  0  0  0  0  0  0  0  0
   17.9786  -10.6026   -0.3557 O   0  0  0  0  0  0  0  0  0  0  0  0
   18.0858   -9.2514    0.2710 C   0  0  0  0  0  0  0  0  0  0  0  0
   19.3831   -8.6144   -0.1113 C   0  0  0  0  0  0  0  0  0  0  0  0
   16.9901   -8.2349   -0.1664 C   0  0  0  0  0  0  0  0  0  0  0  0
   18.1079   -9.3276    1.8245 C   0  0  0  0  0  0  0  0  0  0  0  0
   20.3302   -9.2990   -0.5219 O   0  0  0  0  0  0  0  0  0  0  0  0
   19.4960   -7.2289    0.0007 O   0  0  0  0  0  0  0  0  0  0  0  0
   20.7813   -6.7703   -0.4060 C   0  0  0  0  0  0  0  0  0  0  0  0
   20.8147   -5.2351   -0.2752 C   0  0  0  0  0  0  0  0  0  0  0  0
   13.7481  -11.6165    1.2033 H   0  0  0  0  0  0  0  0  0  0  0  0
   15.6636  -14.4262   -1.1722 H   0  0  0  0  0  0  0  0  0  0  0  0
   17.5307  -13.0541   -1.3614 H   0  0  0  0  0  0  0  0  0  0  0  0
   15.7073  -10.1681    1.0065 H   0  0  0  0  0  0  0  0  0  0  0  0
   17.1388   -7.3627    0.2996 H   0  0  0  0  0  0  0  0  0  0  0  0
   16.0879   -8.5920    0.0755 H   0  0  0  0  0  0  0  0  0  0  0  0
   17.0391   -8.0964   -1.1556 H   0  0  0  0  0  0  0  0  0  0  0  0
   18.1802   -8.4049    2.2029 H   0  0  0  0  0  0  0  0  0  0  0  0
   18.8930   -9.8714    2.1209 H   0  0  0  0  0  0  0  0  0  0  0  0
   17.2646   -9.7556    2.1497 H   0  0  0  0  0  0  0  0  0  0  0  0
   21.4845   -7.1743    0.1792 H   0  0  0  0  0  0  0  0  0  0  0  0
   20.9477   -7.0317   -1.3568 H   0  0  0  0  0  0  0  0  0  0  0  0
   21.7120   -4.8955   -0.5572 H   0  0  0  0  0  0  0  0  0  0  0  0
   20.6453   -4.9774    0.6761 H   0  0  0  0  0  0  0  0  0  0  0  0
   20.1086   -4.8349   -0.8594 H   0  0  0  0  0  0  0  0  0  0  0  0
  1  2  2  0  0  0  0
  2  3  1  0  0  0  0
  3  4  2  0  0  0  0
  4  5  1  0  0  0  0
  5  6  2  0  0  0  0
  6  1  1  0  0  0  0
  2  7  1  0  0  0  0
  5  8  1  0  0  0  0
  8  9  1  0  0  0  0
  9 10  1  0  0  0  0
  9 11  1  0  0  0  0
  9 12  1  0  0  0  0
 10 13  2  0  0  0  0
 10 14  1  0  0  0  0
 14 15  1  0  0  0  0
 15 16  1  0  0  0  0
  1 17  1  0  0  0  0
  3 18  1  0  0  0  0
  4 19  1  0  0  0  0
  6 20  1  0  0  0  0
 11 21  1  0  0  0  0
 11 22  1  0  0  0  0
 11 23  1  0  0  0  0
 12 24  1  0  0  0  0
 12 25  1  0  0  0  0
 12 26  1  0  0  0  0
 15 27  1  0  0  0  0
 15 28  1  0  0  0  0
 16 29  1  0  0  0  0
 16 30  1  0  0  0  0
 16 31  1  0  0  0  0
M  END
>  <Substance ID> (433)
433

>  <Mouse_Female_Canc> (433)
ND

>  <SAL> (433)
1

>  <Rat_Male_Canc> (433)
3

>  <TD50_Rat> (433)
169

>  <TD50_Mouse> (433)
ND

>  <Rat_Female_Canc> (433)
3

>  <Canc> (433)
3

>  <MolWeight> (433)
242.70

>  <Mouse_Male_Canc> (433)
ND

>  <Mouse_Male_NTP> (433)
ND

>  <ChemName> (433)
Ethyl 2-(4-chlorophenoxy)-2-methylpropionate

>  <Rat_Male_NTP> (433)
ND

>  <Reference> (433)
Toxnet

>  <Formula> (433)
C12H15ClO3

>  <SMILES> (433)
CC(OC1=CC=C(C=C1)Cl)(C(=O)OCC)C

>  <Rat_Female_NTP> (433)
ND

>  <CAS> (433)
637-07-0

>  <Mouse_Female_NTP> (433)
ND

>  <Synonyms> (433)
2-(p-Chlorophenoxy)-2-methylpropionic acid ethyl ester; Abitrate; Atromid S; Ethyl alpha-p-chlorophenoxyisobutyrate.

$$$$
434


 24 24  0  0  0  0  0  0  0  0999 V2000
   34.9722  -22.5590   -0.0109 C   0  0  0  0  0  0  0  0  0  0  0  0
   35.8673  -23.5463   -0.0129 C   0  0  0  0  0  0  0  0  0  0  0  0
   37.7064  -21.9675   -0.0347 C   0  0  0  0  0  0  0  0  0  0  0  0
   36.7271  -20.8833   -0.0334 C   0  0  0  0  0  0  0  0  0  0  0  0
   37.3002  -23.2362   -0.0252 C   0  0  0  0  0  0  0  0  0  0  0  0
   35.4268  -21.1616   -0.0219 C   0  0  0  0  0  0  0  0  0  0  0  0
   33.6056  -22.8620    0.0009 O   0  0  0  0  0  0  0  0  0  0  0  0
   39.1673  -21.6463   -0.0457 C   0  0  2  0  0  0  0  0  0  0  0  0
   39.8680  -22.6026    0.7499 O   0  0  0  0  0  0  0  0  0  0  0  0
   39.4087  -20.2450    0.4352 C   0  0  0  0  0  0  0  0  0  0  0  0
   40.5095  -19.5945    0.0671 C   0  0  0  0  0  0  0  0  0  0  0  0
   32.8178  -21.6624   -0.0014 C   0  0  0  0  0  0  0  0  0  0  0  0
   39.5589  -21.7488   -1.0680 H   0  0  0  0  0  0  0  0  0  0  0  0
   35.5617  -24.4984   -0.0060 H   0  0  0  0  0  0  0  0  0  0  0  0
   37.0346  -19.9318   -0.0412 H   0  0  0  0  0  0  0  0  0  0  0  0
   37.9723  -23.9767   -0.0264 H   0  0  0  0  0  0  0  0  0  0  0  0
   34.7573  -20.4189   -0.0207 H   0  0  0  0  0  0  0  0  0  0  0  0
   40.8451  -22.3899    0.7441 H   0  0  0  0  0  0  0  0  0  0  0  0
   38.7416  -19.7999    1.0326 H   0  0  0  0  0  0  0  0  0  0  0  0
   40.6695  -18.6610    0.3879 H   0  0  0  0  0  0  0  0  0  0  0  0
   41.1768  -20.0391   -0.5303 H   0  0  0  0  0  0  0  0  0  0  0  0
   31.8467  -21.9008    0.0072 H   0  0  0  0  0  0  0  0  0  0  0  0
   33.0226  -21.1301   -0.8228 H   0  0  0  0  0  0  0  0  0  0  0  0
   33.0343  -21.1193    0.8099 H   0  0  0  0  0  0  0  0  0  0  0  0
  1  2  2  0  0  0  0
  3  4  1  0  0  0  0
  1  6  1  0  0  0  0
  2  5  1  0  0  0  0
  5  3  2  0  0  0  0
  4  6  2  0  0  0  0
  1  7  1  0  0  0  0
  3  8  1  0  0  0  0
  8  9  1  0  0  0  0
  8 10  1  0  0  0  0
 10 11  2  0  0  0  0
  7 12  1  0  0  0  0
  8 13  1  6  0  0  0
  2 14  1  0  0  0  0
  4 15  1  0  0  0  0
  5 16  1  0  0  0  0
  6 17  1  0  0  0  0
  9 18  1  0  0  0  0
 10 19  1  0  0  0  0
 11 20  1  0  0  0  0
 11 21  1  0  0  0  0
 12 22  1  0  0  0  0
 12 23  1  0  0  0  0
 12 24  1  0  0  0  0
M  END
>  <Substance ID> (434)
434

>  <Mouse_Female_Canc> (434)
3

>  <SAL> (434)
1

>  <Rat_Male_Canc> (434)
ND

>  <TD50_Rat> (434)
ND

>  <TD50_Mouse> (434)
57.8

>  <Rat_Female_Canc> (434)
ND

>  <Canc> (434)
3

>  <MolWeight> (434)
164.20

>  <Mouse_Male_Canc> (434)
ND

>  <Mouse_Male_NTP> (434)
ND

>  <ChemName> (434)
1'-Hydroxyestragole

>  <Rat_Male_NTP> (434)
ND

>  <Reference> (434)
CPDB

>  <Formula> (434)
C10H12O2

>  <SMILES> (434)
C=CC(C1=CC=C(C=C1)OC)O

>  <Rat_Female_NTP> (434)
ND

>  <CAS> (434)
51410-44-7

>  <Mouse_Female_NTP> (434)
ND

>  <Synonyms> (434)
-

$$$$
435


 18 17  0  0  0  0  0  0  0  0999 V2000
   40.3287  -29.6076   -0.0259 N   0  0  0  0  0  0  0  0  0  0  0  0
   39.1486  -28.8625    0.4356 C   0  0  0  0  0  0  0  0  0  0  0  0
   37.8809  -29.4675   -0.1939 C   0  0  0  0  0  0  0  0  0  0  0  0
   41.6275  -28.9458    0.0122 C   0  0  0  0  0  0  0  0  0  0  0  0
   42.8539  -29.5975   -0.3117 N   0  0  0  0  0  0  0  0  0  0  0  0
   40.1726  -30.9224   -0.3936 N   0  0  0  0  0  0  0  0  0  0  0  0
   41.0721  -31.5597   -0.7916 O   0  0  0  0  0  0  0  0  0  0  0  0
   41.6637  -27.7146    0.3368 N   0  0  0  0  0  0  0  0  0  0  0  0
   43.1889  -30.8352    0.1265 N   0  3  0  0  0  0  0  0  0  0  0  0
   42.5446  -31.3940    1.1543 O   0  5  0  0  0  0  0  0  0  0  0  0
   44.1151  -31.3895   -0.3491 O   0  0  0  0  0  0  0  0  0  0  0  0
   39.0863  -28.9211    1.4319 H   0  0  0  0  0  0  0  0  0  0  0  0
   39.2316  -27.9042    0.1621 H   0  0  0  0  0  0  0  0  0  0  0  0
   37.0780  -28.9608    0.1199 H   0  0  0  0  0  0  0  0  0  0  0  0
   37.7974  -30.4259    0.0791 H   0  0  0  0  0  0  0  0  0  0  0  0
   37.9427  -29.4094   -1.1903 H   0  0  0  0  0  0  0  0  0  0  0  0
   43.5046  -29.1128   -0.8963 H   0  0  0  0  0  0  0  0  0  0  0  0
   42.5389  -27.2323    0.3722 H   0  0  0  0  0  0  0  0  0  0  0  0
  1  2  1  0  0  0  0
  2  3  1  0  0  0  0
  1  4  1  0  0  0  0
  4  5  1  0  0  0  0
  1  6  1  0  0  0  0
  6  7  2  0  0  0  0
  4  8  2  0  0  0  0
  5  9  1  0  0  0  0
  9 10  1  0  0  0  0
  9 11  2  0  0  0  0
  2 12  1  0  0  0  0
  2 13  1  0  0  0  0
  3 14  1  0  0  0  0
  3 15  1  0  0  0  0
  3 16  1  0  0  0  0
  5 17  1  0  0  0  0
  8 18  1  0  0  0  0
M  END
>  <Substance ID> (435)
435

>  <Mouse_Female_Canc> (435)
3

>  <SAL> (435)
3

>  <Rat_Male_Canc> (435)
3

>  <TD50_Rat> (435)
ND

>  <TD50_Mouse> (435)
2.84

>  <Rat_Female_Canc> (435)
3

>  <Canc> (435)
3

>  <MolWeight> (435)
161.12

>  <Mouse_Male_Canc> (435)
3

>  <Mouse_Male_NTP> (435)
ND

>  <ChemName> (435)
N-ethyl-N'-nitro-N-nitrosoguanidine

>  <Rat_Male_NTP> (435)
ND

>  <Reference> (435)
Toxnet

>  <Formula> (435)
C3H7N5O3

>  <SMILES> (435)
N=C(N(CC)N=O)N[N+]([O-])=O

>  <Rat_Female_NTP> (435)
ND

>  <CAS> (435)
63885-23-4

>  <Mouse_Female_NTP> (435)
ND

>  <Synonyms> (435)
-

$$$$
436


 11 10  0  0  0  0  0  0  0  0999 V2000
   33.0469  -43.0077    0.0002 N   0  0  0  0  0  0  0  0  0  0  0  0
   31.8017  -42.2266   -0.0001 C   0  0  0  0  0  0  0  0  0  0  0  0
   34.2842  -42.3528    0.0003 N   0  0  0  0  0  0  0  0  0  0  0  0
   32.9942  -44.4379    0.0003 C   0  0  0  0  0  0  0  0  0  0  0  0
   31.9013  -45.0157    0.0002 O   0  0  0  0  0  0  0  0  0  0  0  0
   31.0181  -42.8477   -0.0002 H   0  0  0  0  0  0  0  0  0  0  0  0
   31.7695  -41.6501   -0.8166 H   0  0  0  0  0  0  0  0  0  0  0  0
   31.7692  -41.6499    0.8162 H   0  0  0  0  0  0  0  0  0  0  0  0
   35.1312  -42.8843    0.0005 H   0  0  0  0  0  0  0  0  0  0  0  0
   34.3210  -41.3535    0.0002 H   0  0  0  0  0  0  0  0  0  0  0  0
   33.8411  -44.9697    0.0005 H   0  0  0  0  0  0  0  0  0  0  0  0
  1  2  1  0  0  0  0
  1  3  1  0  0  0  0
  1  4  1  0  0  0  0
  4  5  2  0  0  0  0
  2  6  1  0  0  0  0
  2  7  1  0  0  0  0
  2  8  1  0  0  0  0
  3  9  1  0  0  0  0
  3 10  1  0  0  0  0
  4 11  1  0  0  0  0
M  END
>  <Substance ID> (436)
436

>  <Mouse_Female_Canc> (436)
3

>  <SAL> (436)
1

>  <Rat_Male_Canc> (436)
ND

>  <TD50_Rat> (436)
ND

>  <TD50_Mouse> (436)
1.37

>  <Rat_Female_Canc> (436)
ND

>  <Canc> (436)
3

>  <MolWeight> (436)
74.08

>  <Mouse_Male_Canc> (436)
3

>  <Mouse_Male_NTP> (436)
ND

>  <ChemName> (436)
N-methyl-N-formylhydrazine

>  <Rat_Male_NTP> (436)
ND

>  <Reference> (436)
CPDB

>  <Formula> (436)
C2H6N2O

>  <SMILES> (436)
CN(N)C=O

>  <Rat_Female_NTP> (436)
ND

>  <CAS> (436)
758-17-8

>  <Mouse_Female_NTP> (436)
ND

>  <Synonyms> (436)
-

$$$$
437


 14 13  0  0  0  0  0  0  0  0999 V2000
   33.5770  -52.5308   -0.0293 N   0  0  0  0  0  0  0  0  0  0  0  0
   32.3759  -51.7740    0.4162 C   0  0  0  0  0  0  0  0  0  0  0  0
   31.0973  -52.2165   -0.3341 C   0  0  0  0  0  0  0  0  0  0  0  0
   34.7972  -51.8519   -0.1502 N   0  0  0  0  0  0  0  0  0  0  0  0
   33.5971  -53.9788   -0.0686 C   0  0  0  0  0  0  0  0  0  0  0  0
   32.5837  -54.6557    0.1659 O   0  0  0  0  0  0  0  0  0  0  0  0
   32.2439  -51.9264    1.3956 H   0  0  0  0  0  0  0  0  0  0  0  0
   32.5278  -50.8001    0.2474 H   0  0  0  0  0  0  0  0  0  0  0  0
   30.3167  -51.6849   -0.0056 H   0  0  0  0  0  0  0  0  0  0  0  0
   30.9319  -53.1886   -0.1672 H   0  0  0  0  0  0  0  0  0  0  0  0
   31.2157  -52.0626   -1.3151 H   0  0  0  0  0  0  0  0  0  0  0  0
   35.6155  -52.3435   -0.4481 H   0  0  0  0  0  0  0  0  0  0  0  0
   34.8496  -50.8760    0.0615 H   0  0  0  0  0  0  0  0  0  0  0  0
   34.4525  -54.4465   -0.2912 H   0  0  0  0  0  0  0  0  0  0  0  0
  1  2  1  0  0  0  0
  2  3  1  0  0  0  0
  1  4  1  0  0  0  0
  1  5  1  0  0  0  0
  5  6  2  0  0  0  0
  2  7  1  0  0  0  0
  2  8  1  0  0  0  0
  3  9  1  0  0  0  0
  3 10  1  0  0  0  0
  3 11  1  0  0  0  0
  4 12  1  0  0  0  0
  4 13  1  0  0  0  0
  5 14  1  0  0  0  0
M  END
>  <Substance ID> (437)
437

>  <Mouse_Female_Canc> (437)
3

>  <SAL> (437)
ND

>  <Rat_Male_Canc> (437)
ND

>  <TD50_Rat> (437)
ND

>  <TD50_Mouse> (437)
2.8

>  <Rat_Female_Canc> (437)
ND

>  <Canc> (437)
3

>  <MolWeight> (437)
88.11

>  <Mouse_Male_Canc> (437)
3

>  <Mouse_Male_NTP> (437)
ND

>  <ChemName> (437)
N-ethyl-N-formylhydrazine

>  <Rat_Male_NTP> (437)
ND

>  <Reference> (437)
CPDB

>  <Formula> (437)
C3H8N2O

>  <SMILES> (437)
N(N)(CC)C=O

>  <Rat_Female_NTP> (437)
ND

>  <CAS> (437)
74920-78-8

>  <Mouse_Female_NTP> (437)
ND

>  <Synonyms> (437)
-

$$$$
438
 

 24 25  0  0  0  0  0  0  0  0999 V2000
   34.5036  -62.0006    0.0057 C   0  0  0  0  0  0  0  0  0  0  0  0
   35.7523  -62.4623    0.0075 C   0  0  0  0  0  0  0  0  0  0  0  0
   36.6592  -60.2250   -0.0019 C   0  0  0  0  0  0  0  0  0  0  0  0
   35.2829  -59.7127   -0.0043 C   0  0  0  0  0  0  0  0  0  0  0  0
   36.8793  -61.5368    0.0046 C   0  0  0  0  0  0  0  0  0  0  0  0
   34.2545  -60.5597    0.0012 C   0  0  0  0  0  0  0  0  0  0  0  0
   32.1106  -62.5968    0.0021 C   0  0  0  0  0  0  0  0  0  0  0  0
   31.1421  -64.0540   -0.0046 S   0  0  0  0  0  0  0  0  0  0  0  0
   32.5753  -65.0518   -0.0055 C   0  0  0  0  0  0  0  0  0  0  0  0
   33.6435  -64.3606   -0.0011 N   0  0  0  0  0  0  0  0  0  0  0  0
   33.4006  -62.9532    0.0035 C   0  0  0  0  0  0  0  0  0  0  0  0
   37.7387  -59.3396   -0.0067 N   0  0  0  0  0  0  0  0  0  0  0  0
   32.5731  -66.4510   -0.0083 N   0  0  0  0  0  0  0  0  0  0  0  0
   31.4312  -67.1259    0.0067 N   0  0  0  0  0  0  0  0  0  0  0  0
   35.9181  -63.4485    0.0108 H   0  0  0  0  0  0  0  0  0  0  0  0
   35.1173  -58.7265   -0.0101 H   0  0  0  0  0  0  0  0  0  0  0  0
   37.8157  -61.8877    0.0075 H   0  0  0  0  0  0  0  0  0  0  0  0
   33.3169  -60.2118    0.0023 H   0  0  0  0  0  0  0  0  0  0  0  0
   31.7609  -61.6600    0.0046 H   0  0  0  0  0  0  0  0  0  0  0  0
   38.6744  -59.6922   -0.0050 H   0  0  0  0  0  0  0  0  0  0  0  0
   37.5761  -58.3530   -0.0117 H   0  0  0  0  0  0  0  0  0  0  0  0
   33.4412  -66.9473   -0.0217 H   0  0  0  0  0  0  0  0  0  0  0  0
   31.4413  -68.1258    0.0046 H   0  0  0  0  0  0  0  0  0  0  0  0
   30.5602  -66.6347    0.0202 H   0  0  0  0  0  0  0  0  0  0  0  0
  1  2  2  0  0  0  0
  3  4  1  0  0  0  0
  1  6  1  0  0  0  0
  2  5  1  0  0  0  0
  5  3  2  0  0  0  0
  4  6  2  0  0  0  0
  7  8  1  0  0  0  0
  8  9  1  0  0  0  0
  9 10  2  0  0  0  0
 10 11  1  0  0  0  0
 11  7  2  0  0  0  0
 11  1  1  0  0  0  0
  3 12  1  0  0  0  0
  9 13  1  0  0  0  0
 13 14  1  0  0  0  0
  2 15  1  0  0  0  0
  4 16  1  0  0  0  0
  5 17  1  0  0  0  0
  6 18  1  0  0  0  0
  7 19  1  0  0  0  0
 12 20  1  0  0  0  0
 12 21  1  0  0  0  0
 13 22  1  0  0  0  0
 14 23  1  0  0  0  0
 14 24  1  0  0  0  0
M  END
>  <Substance ID> (438)
438

>  <Mouse_Female_Canc> (438)
3

>  <SAL> (438)
3

>  <Rat_Male_Canc> (438)
ND

>  <TD50_Rat> (438)
1.03

>  <TD50_Mouse> (438)
11.3

>  <Rat_Female_Canc> (438)
3

>  <Canc> (438)
3

>  <MolWeight> (438)
206.26

>  <Mouse_Male_Canc> (438)
ND

>  <Mouse_Male_NTP> (438)
ND

>  <ChemName> (438)
2-Hydrazino-4-(p-aminophenyl)thiazole

>  <Rat_Male_NTP> (438)
ND

>  <Reference> (438)
CPDB

>  <Formula> (438)
C9H10N4S

>  <SMILES> (438)
n2c(c1ccc(N)cc1)csc2NN

>  <Rat_Female_NTP> (438)
ND

>  <CAS> (438)
26049-71-8

>  <Mouse_Female_NTP> (438)
ND

>  <Synonyms> (438)
-

$$$$
439


 32 33  0  0  0  0  0  0  0  0999 V2000
   29.9680  -75.3105    0.0817 C   0  0  0  0  0  0  0  0  0  0  0  0
   29.9433  -76.6396    0.0030 C   0  0  0  0  0  0  0  0  0  0  0  0
   31.1961  -77.3885   -0.0860 C   0  0  0  0  0  0  0  0  0  0  0  0
   31.2493  -74.6031    0.0755 C   0  0  0  0  0  0  0  0  0  0  0  0
   32.3864  -75.2885   -0.0065 C   0  0  0  0  0  0  0  0  0  0  0  0
   32.3616  -76.7407   -0.0876 C   0  0  0  0  0  0  0  0  0  0  0  0
   34.7800  -76.7911   -0.1694 C   0  0  0  0  0  0  0  0  0  0  0  0
   34.8047  -75.3152   -0.0914 C   0  0  0  0  0  0  0  0  0  0  0  0
   33.6296  -77.4678   -0.1742 C   0  0  0  0  0  0  0  0  0  0  0  0
   33.6797  -74.6037   -0.0215 C   0  0  0  0  0  0  0  0  0  0  0  0
   33.7695  -72.8282    0.0396 S   0  0  0  0  0  0  0  0  0  0  0  0
   33.6601  -79.2419   -0.3095 S   0  0  0  0  0  0  0  0  0  0  0  0
   32.6475  -72.2081   -0.7728 O   0  0  0  0  0  0  0  0  0  0  0  0
   35.1141  -72.3663   -0.4907 O   0  0  0  0  0  0  0  0  0  0  0  0
   32.6739  -79.6858   -1.3743 O   0  0  0  0  0  0  0  0  0  0  0  0
   35.0586  -79.7059   -0.6691 O   0  0  0  0  0  0  0  0  0  0  0  0
   33.6048  -72.3083    1.6910 N   0  0  0  0  0  0  0  0  0  0  0  0
   33.1699  -80.0012    1.2601 C   0  0  0  0  0  0  0  0  0  0  0  0
   33.1810  -81.5331    1.1016 C   0  0  0  0  0  0  0  0  0  0  0  0
   29.1125  -74.7965    0.1448 H   0  0  0  0  0  0  0  0  0  0  0  0
   29.0690  -77.1250    0.0047 H   0  0  0  0  0  0  0  0  0  0  0  0
   31.1788  -78.3866   -0.1456 H   0  0  0  0  0  0  0  0  0  0  0  0
   31.2700  -73.6050    0.1330 H   0  0  0  0  0  0  0  0  0  0  0  0
   35.6434  -77.2932   -0.2195 H   0  0  0  0  0  0  0  0  0  0  0  0
   35.6846  -74.8401   -0.0911 H   0  0  0  0  0  0  0  0  0  0  0  0
   33.6544  -71.3105    1.7333 H   0  0  0  0  0  0  0  0  0  0  0  0
   34.3423  -72.7017    2.2399 H   0  0  0  0  0  0  0  0  0  0  0  0
   33.8135  -79.7338    1.9771 H   0  0  0  0  0  0  0  0  0  0  0  0
   32.2499  -79.6965    1.5067 H   0  0  0  0  0  0  0  0  0  0  0  0
   32.9112  -81.9600    1.9646 H   0  0  0  0  0  0  0  0  0  0  0  0
   34.1011  -81.8364    0.8536 H   0  0  0  0  0  0  0  0  0  0  0  0
   32.5379  -81.7991    0.3834 H   0  0  0  0  0  0  0  0  0  0  0  0
  1  2  2  0  0  0  0
  1  4  1  0  0  0  0
  2  3  1  0  0  0  0
  3  6  2  0  0  0  0
  5  4  2  0  0  0  0
  5  6  1  0  0  0  0
  7  8  1  0  0  0  0
  5 10  1  0  0  0  0
  6  9  1  0  0  0  0
  9  7  2  0  0  0  0
  8 10  2  0  0  0  0
 10 11  1  0  0  0  0
  9 12  1  0  0  0  0
 11 13  2  0  0  0  0
 11 14  2  0  0  0  0
 12 15  2  0  0  0  0
 12 16  2  0  0  0  0
 11 17  1  0  0  0  0
 12 18  1  0  0  0  0
 18 19  1  0  0  0  0
  1 20  1  0  0  0  0
  2 21  1  0  0  0  0
  3 22  1  0  0  0  0
  4 23  1  0  0  0  0
  7 24  1  0  0  0  0
  8 25  1  0  0  0  0
 17 26  1  0  0  0  0
 17 27  1  0  0  0  0
 18 28  1  0  0  0  0
 18 29  1  0  0  0  0
 19 30  1  0  0  0  0
 19 31  1  0  0  0  0
 19 32  1  0  0  0  0
M  END
>  <Substance ID> (439)
439

>  <Mouse_Female_Canc> (439)
3

>  <SAL> (439)
ND

>  <Rat_Male_Canc> (439)
ND

>  <TD50_Rat> (439)
ND

>  <TD50_Mouse> (439)
21.1

>  <Rat_Female_Canc> (439)
ND

>  <Canc> (439)
3

>  <MolWeight> (439)
299.36

>  <Mouse_Male_Canc> (439)
ND

>  <Mouse_Male_NTP> (439)
ND

>  <ChemName> (439)
4-Ethylsulfonylnaphthalene-1-sulfonamide

>  <Rat_Male_NTP> (439)
ND

>  <Reference> (439)
CPDB

>  <Formula> (439)
C12H13NO4S2

>  <SMILES> (439)
O=S(=O)(c2c1ccccc1c(cc2)S(=O)(=O)N)CC

>  <Rat_Female_NTP> (439)
ND

>  <CAS> (439)
842-00-2

>  <Mouse_Female_NTP> (439)
ND

>  <Synonyms> (439)
ethyl 4-sulfonamidonaphthyl sulfone.

$$$$
440


 10  9  0  0  0  0  0  0  0  0999 V2000
   34.8241  -92.3793    0.1882 C   0  0  0  0  0  0  0  0  0  0  0  0
   36.0319  -91.6209   -0.3924 C   0  0  2  0  0  0  0  0  0  0  0  0
   37.3174  -92.2863    0.0045 C   0  0  0  0  0  0  0  0  0  0  0  0
   38.3527  -91.6185    0.1046 O   0  0  0  0  0  0  0  0  0  0  0  0
   36.0327  -89.9225    0.0943 Cl  0  0  0  0  0  0  0  0  0  0  0  0
   33.9788  -91.9213   -0.0869 H   0  0  0  0  0  0  0  0  0  0  0  0
   34.8863  -92.3920    1.1862 H   0  0  0  0  0  0  0  0  0  0  0  0
   34.8218  -93.3177   -0.1573 H   0  0  0  0  0  0  0  0  0  0  0  0
   35.9531  -91.6485   -1.3889 H   0  0  0  0  0  0  0  0  0  0  0  0
   37.3362  -93.2692    0.1877 H   0  0  0  0  0  0  0  0  0  0  0  0
  1  2  1  0  0  0  0
  2  3  1  0  0  0  0
  3  4  2  0  0  0  0
  2  5  1  0  0  0  0
  1  6  1  0  0  0  0
  1  7  1  0  0  0  0
  1  8  1  0  0  0  0
  2  9  1  0  0  0  0
  3 10  1  0  0  0  0
M  END
>  <Substance ID> (440)
440

>  <Mouse_Female_Canc> (440)
3

>  <SAL> (440)
ND

>  <Rat_Male_Canc> (440)
ND

>  <TD50_Rat> (440)
ND

>  <TD50_Mouse> (440)
12.9

>  <Rat_Female_Canc> (440)
ND

>  <Canc> (440)
3

>  <MolWeight> (440)
92.52

>  <Mouse_Male_Canc> (440)
1

>  <Mouse_Male_NTP> (440)
ND

>  <ChemName> (440)
2-Chloropropanal

>  <Rat_Male_NTP> (440)
ND

>  <Reference> (440)
CPDB

>  <Formula> (440)
C3H5ClO

>  <SMILES> (440)
CC(C=O)Cl

>  <Rat_Female_NTP> (440)
ND

>  <CAS> (440)
683-50-1

>  <Mouse_Female_NTP> (440)
ND

>  <Synonyms> (440)
-

$$$$
441
 

 22 23  0  0  0  0  0  0  0  0999 V2000
   20.4430  -16.4968   -0.0018 Cl  0  0  0  0  0  0  0  0  0  1  0  0
   19.5357  -15.0312   -0.0022 C   0  0  0  0  0  0  0  0  0  2  0  0
   20.2206  -13.7428   -0.0007 C   0  0  0  0  0  0  0  0  0  3  0  0
   19.5169  -12.6118   -0.0016 C   0  0  0  0  0  0  0  0  0  4  0  0
   18.0473  -12.6572   -0.0030 C   0  0  0  0  0  0  0  0  0  5  0  0
   17.4063  -13.8276   -0.0009 C   0  0  0  0  0  0  0  0  0  6  0  0
   18.2135  -15.0972   -0.0004 C   0  0  0  0  0  0  0  0  0  7  0  0
   17.5160  -16.6898    0.0015 Cl  0  0  0  0  0  0  0  0  0  8  0  0
   15.9218  -13.8262    0.0004 C   0  0  0  0  0  0  0  0  0  9  0  0
   15.1878  -12.5588   -0.0023 C   0  0  0  0  0  0  0  0  0 10  0  0
   13.8549  -12.5684    0.0001 C   0  0  0  0  0  0  0  0  0 11  0  0
   13.1296  -13.8411    0.0029 C   0  0  0  0  0  0  0  0  0 12  0  0
   13.7991  -14.9846    0.0044 C   0  0  0  0  0  0  0  0  0 13  0  0
   15.2403  -14.9666    0.0036 C   0  0  0  0  0  0  0  0  0 14  0  0
   11.4067  -13.8664    0.0029 Cl  0  0  0  0  0  0  0  0  0 15  0  0
   12.9779  -11.0850   -0.0015 Cl  0  0  0  0  0  0  0  0  0 16  0  0
   21.9476  -13.6948    0.0018 Cl  0  0  0  0  0  0  0  0  0 17  0  0
   19.9889  -11.7302   -0.0014 H   0  0  0  0  0  0  0  0  0  0  0  0
   17.5243  -11.8049   -0.0055 H   0  0  0  0  0  0  0  0  0  0  0  0
   15.6841  -11.6907   -0.0058 H   0  0  0  0  0  0  0  0  0  0  0  0
   13.3072  -15.8552    0.0061 H   0  0  0  0  0  0  0  0  0  0  0  0
   15.7392  -15.8332    0.0056 H   0  0  0  0  0  0  0  0  0  0  0  0
  1  2  1  0  0  0  0
  2  3  1  0  0  0  0
  2  7  2  0  0  0  0
  3  4  2  0  0  0  0
  3 17  1  0  0  0  0
  4  5  1  0  0  0  0
  5  6  2  0  0  0  0
  6  7  1  0  0  0  0
  6  9  1  0  0  0  0
  7  8  1  0  0  0  0
  9 10  1  0  0  0  0
  9 14  2  0  0  0  0
 10 11  2  0  0  0  0
 11 12  1  0  0  0  0
 11 16  1  0  0  0  0
 12 13  2  0  0  0  0
 12 15  1  0  0  0  0
 13 14  1  0  0  0  0
  4 18  1  0  0  0  0
  5 19  1  0  0  0  0
 10 20  1  0  0  0  0
 13 21  1  0  0  0  0
 14 22  1  0  0  0  0
M  END
>  <Substance ID> (441)
441

>  <Mouse_Female_Canc> (441)
ND

>  <SAL> (441)
1

>  <Rat_Male_Canc> (441)
2

>  <TD50_Rat> (441)
NP

>  <TD50_Mouse> (441)
9.58

>  <Rat_Female_Canc> (441)
2

>  <Canc> (441)
3

>  <MolWeight> (441)
326.44

>  <Mouse_Male_Canc> (441)
3

>  <Mouse_Male_NTP> (441)
ND

>  <ChemName> (441)
Arochlor 1254 

>  <Rat_Male_NTP> (441)
ND

>  <Reference> (441)
NTP38 & Toxnet

>  <Formula> (441)
C12H5Cl5

>  <SMILES> (441)
Clc2c(ccc(c2Cl)c3cc(c(cc3)Cl)Cl)Cl

>  <Rat_Female_NTP> (441)
ND

>  <CAS> (441)
11097-69-1    

>  <Mouse_Female_NTP> (441)
ND

>  <Synonyms> (441)
Aroclor 1254; chlorodiphenyl, 54% chlorine; Chlorodiphenyl (54% Cl); pcb-1254; PCBs (54%Cl); PCB's (54% Cl); polychlorinated biphenyl 1254.

$$$$
442


  9  8  0  0  0  0  0  0  0  0999 V2000
    1.5019  -15.4694   -0.0002 Cl  0  0  0  0  0  0  0  0  0  0  0  0
    3.0291  -14.6602    0.0008 C   0  0  0  0  0  0  0  0  0  0  0  0
    4.1570  -15.3674   -0.0005 C   0  0  0  0  0  0  0  0  0  0  0  0
    5.4836  -14.6645    0.0004 C   0  0  0  0  0  0  0  0  0  0  0  0
    3.0655  -13.6608    0.0023 H   0  0  0  0  0  0  0  0  0  0  0  0
    4.1206  -16.3668   -0.0020 H   0  0  0  0  0  0  0  0  0  0  0  0
    6.2198  -15.3412   -0.0007 H   0  0  0  0  0  0  0  0  0  0  0  0
    5.5580  -14.0930    0.8177 H   0  0  0  0  0  0  0  0  0  0  0  0
    5.5578  -14.0906   -0.8151 H   0  0  0  0  0  0  0  0  0  0  0  0
  1  2  1  0  0  0  0
  2  3  2  0  0  0  0
  3  4  1  0  0  0  0
  2  5  1  0  0  0  0
  3  6  1  0  0  0  0
  4  7  1  0  0  0  0
  4  8  1  0  0  0  0
  4  9  1  0  0  0  0
M  END
>  <Substance ID> (442)
442

>  <Mouse_Female_Canc> (442)
3

>  <SAL> (442)
3

>  <Rat_Male_Canc> (442)
ND

>  <TD50_Rat> (442)
ND

>  <TD50_Mouse> (442)
5.05

>  <Rat_Female_Canc> (442)
ND

>  <Canc> (442)
3

>  <MolWeight> (442)
76.53

>  <Mouse_Male_Canc> (442)
1

>  <Mouse_Male_NTP> (442)
ND

>  <ChemName> (442)
1-Chloropropene

>  <Rat_Male_NTP> (442)
ND

>  <Reference> (442)
CPDB

>  <Formula> (442)
C3H5Cl

>  <SMILES> (442)
CC=CCl

>  <Rat_Female_NTP> (442)
ND

>  <CAS> (442)
590-21-6

>  <Mouse_Female_NTP> (442)
ND

>  <Synonyms> (442)
1-chloro-1-propene; 1-Chloro-1-propene, cis + trans; 1-Chloropropylene.

$$$$
443


 19 18  0  0  0  0  0  0  0  0999 V2000
    6.0176  -23.1998    0.0175 C   0  0  0  0  0  0  0  0  0  0  0  0
    7.1835  -23.9689   -0.0329 O   0  0  0  0  0  0  0  0  0  0  0  0
    8.3471  -23.1420    0.0901 C   0  0  0  0  0  0  0  0  0  0  0  0
    9.5872  -24.0297   -0.1146 C   0  0  1  0  0  0  0  0  0  0  0  0
   10.8607  -23.2448    0.0368 C   0  0  0  0  0  0  0  0  0  0  0  0
   12.0787  -23.9138    0.1331 O   0  0  0  0  0  0  0  0  0  0  0  0
   10.8298  -22.0098    0.0836 O   0  0  0  0  0  0  0  0  0  0  0  0
    9.6044  -25.1587    0.8258 N   0  0  0  0  0  0  0  0  0  0  0  0
    6.0930  -21.9678    0.1126 O   0  0  0  0  0  0  0  0  0  0  0  0
    4.7082  -23.8732   -0.0458 C   0  0  0  0  0  0  0  0  0  0  0  0
    3.6419  -23.2325   -0.0081 N   0  3  0  0  0  0  0  0  0  0  0  0
    2.6446  -22.5902    0.0289 N   0  5  0  0  0  0  0  0  0  0  0  0
    8.3267  -22.4227   -0.6043 H   0  0  0  0  0  0  0  0  0  0  0  0
    8.3735  -22.7272    0.9997 H   0  0  0  0  0  0  0  0  0  0  0  0
    9.5307  -24.3830   -1.0484 H   0  0  0  0  0  0  0  0  0  0  0  0
   12.8187  -23.2479    0.2283 H   0  0  0  0  0  0  0  0  0  0  0  0
   10.4208  -25.7137    0.6661 H   0  0  0  0  0  0  0  0  0  0  0  0
    8.7882  -25.7201    0.6884 H   0  0  0  0  0  0  0  0  0  0  0  0
    4.6757  -24.8698   -0.1209 H   0  0  0  0  0  0  0  0  0  0  0  0
  1  2  1  0  0  0  0
  2  3  1  0  0  0  0
  3  4  1  0  0  0  0
  4  5  1  0  0  0  0
  5  6  1  0  0  0  0
  5  7  2  0  0  0  0
  4  8  1  1  0  0  0
  1  9  2  0  0  0  0
  1 10  1  0  0  0  0
 10 11  2  0  0  0  0
 11 12  2  0  0  0  0
  3 13  1  0  0  0  0
  3 14  1  0  0  0  0
  4 15  1  0  0  0  0
  6 16  1  0  0  0  0
  8 17  1  0  0  0  0
  8 18  1  0  0  0  0
 10 19  1  0  0  0  0
M  END
>  <Substance ID> (443)
443

>  <Mouse_Female_Canc> (443)
ND

>  <SAL> (443)
3

>  <Rat_Male_Canc> (443)
3

>  <TD50_Rat> (443)
0.793

>  <TD50_Mouse> (443)
ND

>  <Rat_Female_Canc> (443)
3

>  <Canc> (443)
3

>  <MolWeight> (443)
173.13

>  <Mouse_Male_Canc> (443)
ND

>  <Mouse_Male_NTP> (443)
ND

>  <ChemName> (443)
Azaserine

>  <Rat_Male_NTP> (443)
ND

>  <Reference> (443)
CPDB

>  <Formula> (443)
C5H7N3O4

>  <SMILES> (443)
O=C(OC[C@H](N)C(=O)O)/C=[N+]=[N-]

>  <Rat_Female_NTP> (443)
ND

>  <CAS> (443)
115-02-6

>  <Mouse_Female_NTP> (443)
ND

>  <Synonyms> (443)
L-Serine, diazoacetate (ester).

$$$$
444


 20 19  0  0  0  0  0  0  0  0999 V2000
    5.2560  -32.9773   -0.3008 N   0  0  0  0  0  0  0  0  0  0  0  0
    4.5696  -31.7443    0.2258 C   0  0  0  0  0  0  0  0  0  0  0  0
    4.6844  -34.2677    0.2253 C   0  0  0  0  0  0  0  0  0  0  0  0
    6.5878  -32.9168    0.1261 N   0  0  0  0  0  0  0  0  0  0  0  0
    3.1707  -31.5284   -0.3005 C   0  0  0  0  0  0  0  0  0  0  0  0
    2.4309  -30.5255    0.1629 C   0  0  0  0  0  0  0  0  0  0  0  0
    3.3109  -34.6096   -0.3010 C   0  0  0  0  0  0  0  0  0  0  0  0
    2.6653  -35.6757    0.1620 C   0  0  0  0  0  0  0  0  0  0  0  0
    4.5199  -31.8168    1.2219 H   0  0  0  0  0  0  0  0  0  0  0  0
    5.1225  -30.9493   -0.0239 H   0  0  0  0  0  0  0  0  0  0  0  0
    5.3072  -35.0091   -0.0246 H   0  0  0  0  0  0  0  0  0  0  0  0
    4.6284  -34.2003    1.2215 H   0  0  0  0  0  0  0  0  0  0  0  0
    7.0811  -33.7214   -0.2042 H   0  0  0  0  0  0  0  0  0  0  0  0
    6.6173  -32.8953    1.1255 H   0  0  0  0  0  0  0  0  0  0  0  0
    2.8001  -32.1408   -0.9988 H   0  0  0  0  0  0  0  0  0  0  0  0
    1.5048  -30.3841   -0.1869 H   0  0  0  0  0  0  0  0  0  0  0  0
    2.8006  -29.9125    0.8611 H   0  0  0  0  0  0  0  0  0  0  0  0
    2.8862  -34.0331   -0.9991 H   0  0  0  0  0  0  0  0  0  0  0  0
    1.7559  -35.9005   -0.1878 H   0  0  0  0  0  0  0  0  0  0  0  0
    3.0892  -36.2528    0.8600 H   0  0  0  0  0  0  0  0  0  0  0  0
  1  2  1  0  0  0  0
  1  3  1  0  0  0  0
  1  4  1  0  0  0  0
  2  5  1  0  0  0  0
  5  6  2  0  0  0  0
  3  7  1  0  0  0  0
  7  8  2  0  0  0  0
  2  9  1  0  0  0  0
  2 10  1  0  0  0  0
  3 11  1  0  0  0  0
  3 12  1  0  0  0  0
  4 13  1  0  0  0  0
  4 14  1  0  0  0  0
  5 15  1  0  0  0  0
  6 16  1  0  0  0  0
  6 17  1  0  0  0  0
  7 18  1  0  0  0  0
  8 19  1  0  0  0  0
  8 20  1  0  0  0  0
M  END
>  <Substance ID> (444)
444

>  <Mouse_Female_Canc> (444)
3

>  <SAL> (444)
ND

>  <Rat_Male_Canc> (444)
ND

>  <TD50_Rat> (444)
ND

>  <TD50_Mouse> (444)
29.6

>  <Rat_Female_Canc> (444)
ND

>  <Canc> (444)
3

>  <MolWeight> (444)
112.17

>  <Mouse_Male_Canc> (444)
3

>  <Mouse_Male_NTP> (444)
ND

>  <ChemName> (444)
1,1-Diallylhydrazine

>  <Rat_Male_NTP> (444)
ND

>  <Reference> (444)
CPDB

>  <Formula> (444)
C6H12N2

>  <SMILES> (444)
N(N)(CC=C)CC=C

>  <Rat_Female_NTP> (444)
ND

>  <CAS> (444)
5164-11-4

>  <Mouse_Female_NTP> (444)
ND

>  <Synonyms> (444)
-

$$$$
445
  

 24 23  0  0  0  0  0  0  0  0999 V2000
   17.4056  -15.4008   -0.4381 O   0  0  0  0  0  0  0  0  0  1  0  0
   18.6843  -15.1312    0.1209 C   0  0  1  0  0  0  0  0  0  2  0  0
   19.6364  -16.2325   -0.4327 C   0  0  0  0  0  0  0  0  0  3  0  0
   21.4262  -16.1327    0.3240 Br  0  0  0  0  0  0  0  0  0  4  0  0
   19.1724  -13.6818   -0.2949 C   0  0  2  0  0  0  0  0  0  5  0  0
   20.4985  -13.4956    0.1905 O   0  0  0  0  0  0  0  0  0  6  0  0
   18.3637  -12.3932    0.2266 C   0  0  1  0  0  0  0  0  0  7  0  0
   19.0637  -11.2732   -0.3192 O   0  0  0  0  0  0  0  0  0  8  0  0
   16.8377  -12.1886   -0.1504 C   0  0  2  0  0  0  0  0  0  9  0  0
   16.4420  -10.8990    0.3213 O   0  0  0  0  0  0  0  0  0 10  0  0
   15.8678  -13.1983    0.5002 C   0  0  0  0  0  0  0  0  0 11  0  0
   14.0517  -12.7985   -0.0471 Br  0  0  0  0  0  0  0  0  0 12  0  0
   16.7494  -14.7193   -0.1143 H   0  0  0  0  0  0  0  0  0  0  0  0
   18.6649  -15.1487    1.1205 H   0  0  0  0  0  0  0  0  0  0  0  0
   19.2479  -17.1283   -0.2168 H   0  0  0  0  0  0  0  0  0  0  0  0
   19.7029  -16.1278   -1.4250 H   0  0  0  0  0  0  0  0  0  0  0  0
   19.0438  -13.7004   -1.2864 H   0  0  0  0  0  0  0  0  0  0  0  0
   20.8221  -12.5843   -0.0637 H   0  0  0  0  0  0  0  0  0  0  0  0
   18.3321  -12.5105    1.2192 H   0  0  0  0  0  0  0  0  0  0  0  0
   18.6135  -10.4270   -0.0343 H   0  0  0  0  0  0  0  0  0  0  0  0
   16.7801  -12.3081   -1.1415 H   0  0  0  0  0  0  0  0  0  0  0  0
   15.4803  -10.7420    0.0966 H   0  0  0  0  0  0  0  0  0  0  0  0
   16.1069  -14.1245    0.2090 H   0  0  0  0  0  0  0  0  0  0  0  0
   15.9375  -13.1328    1.4956 H   0  0  0  0  0  0  0  0  0  0  0  0
  1  2  1  0  0  0  0
  2  3  1  0  0  0  0
  2  5  1  0  0  0  0
  3  4  1  0  0  0  0
  5  6  1  0  0  0  0
  5  7  1  0  0  0  0
  7  8  1  0  0  0  0
  7  9  1  0  0  0  0
  9 10  1  0  0  0  0
  9 11  1  0  0  0  0
 11 12  1  0  0  0  0
  1 13  1  0  0  0  0
  2 14  1  0  0  0  0
  3 15  1  0  0  0  0
  3 16  1  0  0  0  0
  5 17  1  0  0  0  0
  6 18  1  0  0  0  0
  7 19  1  0  0  0  0
  8 20  1  0  0  0  0
  9 21  1  0  0  0  0
 10 22  1  0  0  0  0
 11 23  1  0  0  0  0
 11 24  1  0  0  0  0
M  END
>  <Substance ID> (445)
445

>  <Mouse_Female_Canc> (445)
3

>  <SAL> (445)
3

>  <Rat_Male_Canc> (445)
3

>  <TD50_Rat> (445)
8.37

>  <TD50_Mouse> (445)
11

>  <Rat_Female_Canc> (445)
ND

>  <Canc> (445)
3

>  <MolWeight> (445)
307.97

>  <Mouse_Male_Canc> (445)
3

>  <Mouse_Male_NTP> (445)
ND

>  <ChemName> (445)
Dibromodulcitol

>  <Rat_Male_NTP> (445)
ND

>  <Reference> (445)
CPDB

>  <Formula> (445)
C6H12Br2O4

>  <SMILES> (445)
O[CH](CBr)[CH](O)[CH](O)[CH](O)CBr

>  <Rat_Female_NTP> (445)
ND

>  <CAS> (445)
10318-26-0

>  <Mouse_Female_NTP> (445)
ND

>  <Synonyms> (445)
1,6-dibromo-1,6-dideoxydulcitol; 1,6-dibromo-1,6-dideoxy-galactitol; 1,6-dibromo-1,6-dodeoxygalactitol; 1,6-dibromodulcitol; Mitolactol.

$$$$
446


 12 11  0  0  0  0  0  0  0  0999 V2000
    5.0253  -51.7379    0.2688 N   0  0  0  0  0  0  0  0  0  0  0  0
    3.8585  -50.9978   -0.3046 C   0  0  0  0  0  0  0  0  0  0  0  0
    2.4881  -51.5317    0.1845 C   0  0  0  0  0  0  0  0  0  0  0  0
    6.2698  -51.1259    0.0974 C   0  0  0  0  0  0  0  0  0  0  0  0
    7.2918  -50.6337   -0.1017 N   0  0  0  0  0  0  0  0  0  0  0  0
    5.0851  -53.1141    0.0623 N   0  0  0  0  0  0  0  0  0  0  0  0
    4.1438  -53.7675   -0.2049 O   0  0  0  0  0  0  0  0  0  0  0  0
    3.9348  -50.0355   -0.0436 H   0  0  0  0  0  0  0  0  0  0  0  0
    3.8919  -51.0771   -1.3009 H   0  0  0  0  0  0  0  0  0  0  0  0
    1.7533  -50.9974   -0.2331 H   0  0  0  0  0  0  0  0  0  0  0  0
    2.4342  -51.4507    1.1798 H   0  0  0  0  0  0  0  0  0  0  0  0
    2.3914  -52.4921   -0.0771 H   0  0  0  0  0  0  0  0  0  0  0  0
  1  2  1  0  0  0  0
  2  3  1  0  0  0  0
  1  4  1  0  0  0  0
  4  5  3  0  0  0  0
  1  6  1  0  0  0  0
  6  7  2  0  0  0  0
  2  8  1  0  0  0  0
  2  9  1  0  0  0  0
  3 10  1  0  0  0  0
  3 11  1  0  0  0  0
  3 12  1  0  0  0  0
M  END
>  <Substance ID> (446)
446

>  <Mouse_Female_Canc> (446)
ND

>  <SAL> (446)
3

>  <Rat_Male_Canc> (446)
3

>  <TD50_Rat> (446)
3.68

>  <TD50_Mouse> (446)
ND

>  <Rat_Female_Canc> (446)
3

>  <Canc> (446)
3

>  <MolWeight> (446)
99.09

>  <Mouse_Male_Canc> (446)
ND

>  <Mouse_Male_NTP> (446)
ND

>  <ChemName> (446)
Ethylnitrosocyanamide

>  <Rat_Male_NTP> (446)
ND

>  <Reference> (446)
CPDB

>  <Formula> (446)
C3H5N3O

>  <SMILES> (446)
N#CN(CC)N=O

>  <Rat_Female_NTP> (446)
ND

>  <CAS> (446)
38434-77-4

>  <Mouse_Female_NTP> (446)
ND

>  <Synonyms> (446)
Nitrosoethanecarbamonitrile.

$$$$
447


 14 14  0  0  0  0  0  0  0  0999 V2000
    1.6259  -70.6917   -0.0006 C   0  0  0  0  0  0  0  0  0  0  0  0
    1.6501  -72.0230    0.0009 C   0  0  0  0  0  0  0  0  0  0  0  0
    4.0755  -72.0502   -0.0011 C   0  0  0  0  0  0  0  0  0  0  0  0
    4.0474  -70.5732   -0.0006 C   0  0  0  0  0  0  0  0  0  0  0  0
    2.9314  -72.7330    0.0010 C   0  0  0  0  0  0  0  0  0  0  0  0
    2.8793  -69.9359   -0.0006 C   0  0  0  0  0  0  0  0  0  0  0  0
    5.5124  -69.6472   -0.0006 Cl  0  0  0  0  0  0  0  0  0  0  0  0
    5.2938  -72.7445    0.0004 N   0  3  0  0  0  0  0  0  0  0  0  0
    5.2959  -74.0653    0.0015 O   0  5  0  0  0  0  0  0  0  0  0  0
    6.3151  -72.1656    0.0005 O   0  0  0  0  0  0  0  0  0  0  0  0
    0.7507  -70.2079   -0.0017 H   0  0  0  0  0  0  0  0  0  0  0  0
    0.7931  -72.5384    0.0020 H   0  0  0  0  0  0  0  0  0  0  0  0
    2.9474  -73.7328    0.0026 H   0  0  0  0  0  0  0  0  0  0  0  0
    2.8577  -68.9362   -0.0007 H   0  0  0  0  0  0  0  0  0  0  0  0
  1  2  2  0  0  0  0
  3  4  1  0  0  0  0
  1  6  1  0  0  0  0
  2  5  1  0  0  0  0
  5  3  2  0  0  0  0
  4  6  2  0  0  0  0
  4  7  1  0  0  0  0
  3  8  1  0  0  0  0
  8  9  1  0  0  0  0
  8 10  2  0  0  0  0
  1 11  1  0  0  0  0
  2 12  1  0  0  0  0
  5 13  1  0  0  0  0
  6 14  1  0  0  0  0
M  END
>  <Substance ID> (447)
447

>  <Mouse_Female_Canc> (447)
3

>  <SAL> (447)
3

>  <Rat_Male_Canc> (447)
1

>  <TD50_Rat> (447)
NP

>  <TD50_Mouse> (447)
157

>  <Rat_Female_Canc> (447)
ND

>  <Canc> (447)
3

>  <MolWeight> (447)
157.56

>  <Mouse_Male_Canc> (447)
3

>  <Mouse_Male_NTP> (447)
ND

>  <ChemName> (447)
1-Chloro-2-nitrobenzene

>  <Rat_Male_NTP> (447)
ND

>  <Reference> (447)
CPDB

>  <Formula> (447)
C6H4ClNO2

>  <SMILES> (447)
ClC1=C(C=CC=C1)[N+](=O)[O-]

>  <Rat_Female_NTP> (447)
ND

>  <CAS> (447)
88-73-3

>  <Mouse_Female_NTP> (447)
ND

>  <Synonyms> (447)
2-chloro-1-nitrobenzene; o-chloronitrobenzene; 2-CNB; 2-Nitrochlorobenzene; Oncb.

$$$$
448


 18 18  0  0  0  0  0  0  0  0999 V2000
    1.8776  -81.8746   -0.0003 C   0  0  0  0  0  0  0  0  0  0  0  0
    2.7591  -82.8730   -0.0007 C   0  0  0  0  0  0  0  0  0  0  0  0
    4.6174  -81.3201    0.0000 C   0  0  0  0  0  0  0  0  0  0  0  0
    3.6484  -80.2232    0.0004 C   0  0  0  0  0  0  0  0  0  0  0  0
    4.1940  -82.5828   -0.0005 C   0  0  0  0  0  0  0  0  0  0  0  0
    2.3432  -80.4872   -0.0000 C   0  0  0  0  0  0  0  0  0  0  0  0
    6.0509  -81.0272   -0.0004 C   0  0  0  0  0  0  0  0  0  0  0  0
    7.0018  -82.0967   -0.0005 N   0  0  0  0  0  0  0  0  0  0  0  0
    8.3730  -81.8132   -0.0003 N   0  0  0  0  0  0  0  0  0  0  0  0
    6.4410  -79.8544   -0.0002 O   0  0  0  0  0  0  0  0  0  0  0  0
    0.8975  -82.0730   -0.0001 H   0  0  0  0  0  0  0  0  0  0  0  0
    2.4408  -83.8210   -0.0011 H   0  0  0  0  0  0  0  0  0  0  0  0
    3.9666  -79.2752    0.0011 H   0  0  0  0  0  0  0  0  0  0  0  0
    4.8559  -83.3323   -0.0008 H   0  0  0  0  0  0  0  0  0  0  0  0
    1.6813  -79.7375   -0.0002 H   0  0  0  0  0  0  0  0  0  0  0  0
    6.6871  -83.0459   -0.0006 H   0  0  0  0  0  0  0  0  0  0  0  0
    9.0380  -82.5600   -0.0004 H   0  0  0  0  0  0  0  0  0  0  0  0
    8.6873  -80.8639   -0.0002 H   0  0  0  0  0  0  0  0  0  0  0  0
  1  2  2  0  0  0  0
  3  4  1  0  0  0  0
  1  6  1  0  0  0  0
  2  5  1  0  0  0  0
  5  3  2  0  0  0  0
  4  6  2  0  0  0  0
  3  7  1  0  0  0  0
  7  8  1  0  0  0  0
  8  9  1  0  0  0  0
  7 10  2  0  0  0  0
  1 11  1  0  0  0  0
  2 12  1  0  0  0  0
  4 13  1  0  0  0  0
  5 14  1  0  0  0  0
  6 15  1  0  0  0  0
  8 16  1  0  0  0  0
  9 17  1  0  0  0  0
  9 18  1  0  0  0  0
M  END
>  <Substance ID> (448)
448

>  <Mouse_Female_Canc> (448)
3

>  <SAL> (448)
ND

>  <Rat_Male_Canc> (448)
ND

>  <TD50_Rat> (448)
ND

>  <TD50_Mouse> (448)
9.59

>  <Rat_Female_Canc> (448)
ND

>  <Canc> (448)
3

>  <MolWeight> (448)
136.15

>  <Mouse_Male_Canc> (448)
3

>  <Mouse_Male_NTP> (448)
ND

>  <ChemName> (448)
Benzoyl hydrazine

>  <Rat_Male_NTP> (448)
ND

>  <Reference> (448)
CPDB

>  <Formula> (448)
C7H8N2O

>  <SMILES> (448)
O=C(C1=CC=CC=C1)NN

>  <Rat_Female_NTP> (448)
ND

>  <CAS> (448)
613-94-5

>  <Mouse_Female_NTP> (448)
ND

>  <Synonyms> (448)
Benzhydrazide; Benzoic acid, hydrazide; Benzohydrazide.

$$$$
449


 25 26  0  0  0  0  0  0  0  0999 V2000
    4.4291  -88.8777    0.0376 C   0  0  0  0  0  0  0  0  0  0  0  0
    4.6270  -90.1873   -0.0663 C   0  0  0  0  0  0  0  0  0  0  0  0
    7.0441  -89.9161   -0.0599 C   0  0  0  0  0  0  0  0  0  0  0  0
    6.8153  -88.4559    0.0533 C   0  0  0  0  0  0  0  0  0  0  0  0
    5.9828  -90.7201   -0.1166 C   0  0  0  0  0  0  0  0  0  0  0  0
    5.5751  -87.9689    0.0991 C   0  0  0  0  0  0  0  0  0  0  0  0
    8.3308  -90.5711   -0.1117 O   0  0  0  0  0  0  0  0  0  0  0  0
    9.6121  -89.9053   -0.0580 C   0  0  0  0  0  0  0  0  0  0  0  0
   10.6818  -90.6991   -0.1114 C   0  0  0  0  0  0  0  0  0  0  0  0
   12.2177  -88.8400    0.0432 C   0  0  0  0  0  0  0  0  0  0  0  0
   11.0605  -87.9455    0.0992 C   0  0  0  0  0  0  0  0  0  0  0  0
   12.0339  -90.1519   -0.0585 C   0  0  0  0  0  0  0  0  0  0  0  0
    9.8261  -88.4443    0.0532 C   0  0  0  0  0  0  0  0  0  0  0  0
    2.8188  -88.2571    0.1003 Cl  0  0  0  0  0  0  0  0  0  0  0  0
   13.5127  -88.3221    0.0958 N   0  0  0  0  0  0  0  0  0  0  0  0
    3.8446  -90.8085   -0.1101 H   0  0  0  0  0  0  0  0  0  0  0  0
    7.5960  -87.8324    0.0956 H   0  0  0  0  0  0  0  0  0  0  0  0
    6.1192  -91.7077   -0.1950 H   0  0  0  0  0  0  0  0  0  0  0  0
    5.4276  -86.9828    0.1755 H   0  0  0  0  0  0  0  0  0  0  0  0
   10.5555  -91.6880   -0.1892 H   0  0  0  0  0  0  0  0  0  0  0  0
   11.1969  -86.9575    0.1721 H   0  0  0  0  0  0  0  0  0  0  0  0
   12.8228  -90.7651   -0.0989 H   0  0  0  0  0  0  0  0  0  0  0  0
    9.0393  -87.8285    0.0940 H   0  0  0  0  0  0  0  0  0  0  0  0
   14.2995  -88.9380    0.0572 H   0  0  0  0  0  0  0  0  0  0  0  0
   13.6537  -87.3351    0.1722 H   0  0  0  0  0  0  0  0  0  0  0  0
  1  2  2  0  0  0  0
  3  4  1  0  0  0  0
  1  6  1  0  0  0  0
  2  5  1  0  0  0  0
  5  3  2  0  0  0  0
  4  6  2  0  0  0  0
  3  7  1  0  0  0  0
  7  8  1  0  0  0  0
  8  9  2  0  0  0  0
 10 11  1  0  0  0  0
  8 13  1  0  0  0  0
  9 12  1  0  0  0  0
 12 10  2  0  0  0  0
 11 13  2  0  0  0  0
  1 14  1  0  0  0  0
 10 15  1  0  0  0  0
  2 16  1  0  0  0  0
  4 17  1  0  0  0  0
  5 18  1  0  0  0  0
  6 19  1  0  0  0  0
  9 20  1  0  0  0  0
 11 21  1  0  0  0  0
 12 22  1  0  0  0  0
 13 23  1  0  0  0  0
 15 24  1  0  0  0  0
 15 25  1  0  0  0  0
M  END
>  <Substance ID> (449)
449

>  <Mouse_Female_Canc> (449)
3

>  <SAL> (449)
ND

>  <Rat_Male_Canc> (449)
3

>  <TD50_Rat> (449)
37.6

>  <TD50_Mouse> (449)
346

>  <Rat_Female_Canc> (449)
ND

>  <Canc> (449)
3

>  <MolWeight> (449)
219.67

>  <Mouse_Male_Canc> (449)
1

>  <Mouse_Male_NTP> (449)
ND

>  <ChemName> (449)
4-Chloro-4'-aminodiphenylether

>  <Rat_Male_NTP> (449)
ND

>  <Reference> (449)
CPDB

>  <Formula> (449)
C12H10ClNO

>  <SMILES> (449)
NC1=CC=C(C=C1)OC2=CC=C(C=C2)Cl

>  <Rat_Female_NTP> (449)
ND

>  <CAS> (449)
101-79-1

>  <Mouse_Female_NTP> (449)
ND

>  <Synonyms> (449)
4-(4-chlorophenoxy)benzenamine; 4-Amino-4'-chlorodiphenyl ether; 4-chlorophenoxyaniline.

$$$$
450


 18 18  0  0  0  0  0  0  0  0999 V2000
   -0.0187    1.5258    0.0104 C   0  0  3  0  0  0  0  0  0  1  0  0
    0.0021   -0.0041    0.0020 C   0  0  3  0  0  0  0  0  0  2  0  0
    1.4167    2.0553   -0.0004 C   0  0  3  0  0  0  0  0  0  3  0  0
   -0.8907    2.1230   -1.4503 Cl  0  0  0  0  0  0  0  0  0  4  0  0
    0.7421   -0.5109    1.2415 C   0  0  3  0  0  0  0  0  0  5  0  0
   -1.6894   -0.6281    0.0148 Cl  0  0  0  0  0  0  0  0  0  6  0  0
    2.1567    1.5485    1.2391 C   0  0  3  0  0  0  0  0  0  7  0  0
    2.2606    1.4739   -1.4838 Cl  0  0  0  0  0  0  0  0  0  8  0  0
    2.1775    0.0187    1.2307 C   0  0  3  0  0  0  0  0  0  9  0  0
   -0.1019    0.0706    2.7250 Cl  0  0  0  0  0  0  0  0  0 10  0  0
    3.8482    2.1726    1.2263 Cl  0  0  0  0  0  0  0  0  0 11  0  0
    3.0495   -0.5786    2.6914 Cl  0  0  0  0  0  0  0  0  0 12  0  0
   -0.5289    1.8773    0.9072 H   0  0  0  0  0  0  0  0  0 13  0  0
    0.5123   -0.3556   -0.8948 H   0  0  0  0  0  0  0  0  0 14  0  0
    1.4019    3.1452    0.0056 H   0  0  0  0  0  0  0  0  0 15  0  0
    0.7568   -1.6008    1.2356 H   0  0  0  0  0  0  0  0  0 16  0  0
    1.6465    1.9000    2.1359 H   0  0  0  0  0  0  0  0  0 17  0  0
    2.6876   -0.3328    0.3339 H   0  0  0  0  0  0  0  0  0 18  0  0
  1  2  1  0  0  0  0
  1  3  1  0  0  0  0
  1  4  1  0  0  0  0
  1 13  1  0  0  0  0
  2  5  1  0  0  0  0
  2  6  1  0  0  0  0
  2 14  1  0  0  0  0
  3  7  1  0  0  0  0
  3  8  1  0  0  0  0
  3 15  1  0  0  0  0
  5  9  1  0  0  0  0
  5 10  1  0  0  0  0
  5 16  1  0  0  0  0
  7 11  1  0  0  0  0
  7  9  1  0  0  0  0
  7 17  1  0  0  0  0
  9 12  1  0  0  0  0
  9 18  1  0  0  0  0
M  END
>  <Substance ID> (450)
450

>  <Mouse_Female_Canc> (450)
3

>  <SAL> (450)
ND

>  <Rat_Male_Canc> (450)
ND

>  <TD50_Rat> (450)
ND

>  <TD50_Mouse> (450)
14.8

>  <Rat_Female_Canc> (450)
ND

>  <Canc> (450)
3

>  <MolWeight> (450)
290.83

>  <Mouse_Male_Canc> (450)
3

>  <Mouse_Male_NTP> (450)
ND

>  <ChemName> (450)
Hexachlorocyclohexane

>  <Rat_Male_NTP> (450)
ND

>  <Reference> (450)
CPDB

>  <Formula> (450)
C6H6Cl6

>  <SMILES> (450)
ClC1C(C(C(Cl)C(C1Cl)Cl)Cl)Cl

>  <Rat_Female_NTP> (450)
ND

>  <CAS> (450)
608-73-1

>  <Mouse_Female_NTP> (450)
ND

>  <Synonyms> (450)
1,2,3,4,5,6-hexachlorocyclohexane; HCH; HEXACHLOROCYCLOHEXANE (MIXTURE); Hexachlorocyclohexane, Technical; technical Hexachlorocyclohexane; t-HCH.

$$$$
451


 14 14  0  0  0  0  0  0  0  0999 V2000
   30.2776  -13.5843   -0.0009 C   0  0  0  0  0  0  0  0  0  0  0  0
   30.2818  -14.9153   -0.0003 C   0  0  0  0  0  0  0  0  0  0  0  0
   32.7024  -14.9740    0.0001 C   0  0  0  0  0  0  0  0  0  0  0  0
   32.6980  -13.5103    0.0010 C   0  0  0  0  0  0  0  0  0  0  0  0
   31.5510  -15.6432   -0.0003 C   0  0  0  0  0  0  0  0  0  0  0  0
   31.5431  -12.8481    0.0001 C   0  0  0  0  0  0  0  0  0  0  0  0
   31.5375  -11.1200   -0.0003 Cl  0  0  0  0  0  0  0  0  0  0  0  0
   31.5556  -17.0392    0.0005 N   0  3  0  0  0  0  0  0  0  0  0  0
   30.4102  -17.7048    0.0000 O   0  5  0  0  0  0  0  0  0  0  0  0
   32.5760  -17.6231   -0.0001 O   0  0  0  0  0  0  0  0  0  0  0  0
   29.4100  -13.0871   -0.0021 H   0  0  0  0  0  0  0  0  0  0  0  0
   29.4172  -15.4179    0.0001 H   0  0  0  0  0  0  0  0  0  0  0  0
   33.5699  -15.4714   -0.0002 H   0  0  0  0  0  0  0  0  0  0  0  0
   33.5625  -13.0077    0.0022 H   0  0  0  0  0  0  0  0  0  0  0  0
  1  2  2  0  0  0  0
  3  4  1  0  0  0  0
  1  6  1  0  0  0  0
  2  5  1  0  0  0  0
  5  3  2  0  0  0  0
  4  6  2  0  0  0  0
  6  7  1  0  0  0  0
  5  8  1  0  0  0  0
  8  9  1  0  0  0  0
  8 10  2  0  0  0  0
  1 11  1  0  0  0  0
  2 12  1  0  0  0  0
  3 13  1  0  0  0  0
  4 14  1  0  0  0  0
M  END
>  <Substance ID> (451)
451

>  <Mouse_Female_Canc> (451)
3

>  <SAL> (451)
3

>  <Rat_Male_Canc> (451)
1

>  <TD50_Rat> (451)
NP

>  <TD50_Mouse> (451)
473

>  <Rat_Female_Canc> (451)
ND

>  <Canc> (451)
3

>  <MolWeight> (451)
157.56

>  <Mouse_Male_Canc> (451)
3

>  <Mouse_Male_NTP> (451)
ND

>  <ChemName> (451)
1-Chloro-4-Nitrobenzene

>  <Rat_Male_NTP> (451)
ND

>  <Reference> (451)
CPDB

>  <Formula> (451)
C6H4ClNO2

>  <SMILES> (451)
O=[N+](C1=CC=C(C=C1)Cl)[O-]

>  <Rat_Female_NTP> (451)
ND

>  <CAS> (451)
100-00-5

>  <Mouse_Female_NTP> (451)
ND

>  <Synonyms> (451)
1,4-Chloronitrobenzene; 4-chloro-1-nitrobenzene; 4-chloronitrobenzene; 4-Nitrochlorobenzene; para-NITROCHLOROBENZENE (1-CHLORO-4-NITROBENZENE); nitrochlorobenzene; PNCB.

$$$$
452


 22 23  0  0  0  0  0  0  0  0999 V2000
   31.1824  -23.7141    0.0003 C   0  0  0  0  0  0  0  0  0  0  0  0
   32.4021  -24.4289   -0.0036 O   0  0  0  0  0  0  0  0  0  0  0  0
   33.3301  -23.3517   -0.0003 C   0  0  0  0  0  0  0  0  0  0  0  0
   32.7492  -22.1580    0.0021 C   0  0  0  0  0  0  0  0  0  0  0  0
   31.3438  -22.3952    0.0025 C   0  0  0  0  0  0  0  0  0  0  0  0
   27.5552  -24.2820    0.0009 C   0  0  0  0  0  0  0  0  0  0  0  0
   27.4719  -25.5512   -0.0035 N   0  0  0  0  0  0  0  0  0  0  0  0
   29.7765  -25.7585   -0.0024 N   0  0  0  0  0  0  0  0  0  0  0  0
   29.8676  -24.3639    0.0006 C   0  0  0  0  0  0  0  0  0  0  0  0
   28.6365  -26.3234   -0.0026 C   0  0  0  0  0  0  0  0  0  0  0  0
   28.8111  -23.6592    0.0032 N   0  0  0  0  0  0  0  0  0  0  0  0
   28.5465  -27.7174   -0.0013 N   0  0  0  0  0  0  0  0  0  0  0  0
   26.3916  -23.5085    0.0020 N   0  0  0  0  0  0  0  0  0  0  0  0
   34.7189  -23.5255    0.0002 N   0  3  0  0  0  0  0  0  0  0  0  0
   35.2308  -24.7433   -0.0001 O   0  5  0  0  0  0  0  0  0  0  0  0
   35.4279  -22.5882    0.0000 O   0  0  0  0  0  0  0  0  0  0  0  0
   33.2069  -21.2689    0.0034 H   0  0  0  0  0  0  0  0  0  0  0  0
   30.6208  -21.7043    0.0040 H   0  0  0  0  0  0  0  0  0  0  0  0
   29.3784  -28.2722   -0.0006 H   0  0  0  0  0  0  0  0  0  0  0  0
   27.6500  -28.1605   -0.0010 H   0  0  0  0  0  0  0  0  0  0  0  0
   26.4546  -22.5105    0.0054 H   0  0  0  0  0  0  0  0  0  0  0  0
   25.4958  -23.9528   -0.0006 H   0  0  0  0  0  0  0  0  0  0  0  0
  1  2  1  0  0  0  0
  2  3  1  0  0  0  0
  3  4  2  0  0  0  0
  4  5  1  0  0  0  0
  5  1  2  0  0  0  0
  6  7  2  0  0  0  0
  8  9  1  0  0  0  0
  6 11  1  0  0  0  0
  7 10  1  0  0  0  0
 10  8  2  0  0  0  0
  9 11  2  0  0  0  0
  9  1  1  0  0  0  0
 10 12  1  0  0  0  0
  6 13  1  0  0  0  0
  3 14  1  0  0  0  0
 14 15  1  0  0  0  0
 14 16  2  0  0  0  0
  4 17  1  0  0  0  0
  5 18  1  0  0  0  0
 12 19  1  0  0  0  0
 12 20  1  0  0  0  0
 13 21  1  0  0  0  0
 13 22  1  0  0  0  0
M  END
>  <Substance ID> (452)
452

>  <Mouse_Female_Canc> (452)
ND

>  <SAL> (452)
3

>  <Rat_Male_Canc> (452)
ND

>  <TD50_Rat> (452)
1.71

>  <TD50_Mouse> (452)
ND

>  <Rat_Female_Canc> (452)
3

>  <Canc> (452)
3

>  <MolWeight> (452)
222.16

>  <Mouse_Male_Canc> (452)
ND

>  <Mouse_Male_NTP> (452)
ND

>  <ChemName> (452)
4,6-Diamino-2-(5-nitro-2-furyl)-s-triazine

>  <Rat_Male_NTP> (452)
ND

>  <Reference> (452)
CPDB

>  <Formula> (452)
C7H6N6O3

>  <SMILES> (452)
NC1=NC(=NC(=N1)C2=CC=C(O2)[N+]([O-])=O)N

>  <Rat_Female_NTP> (452)
ND

>  <CAS> (452)
720-69-4

>  <Mouse_Female_NTP> (452)
ND

>  <Synonyms> (452)
-

$$$$
453


 39 40  0  0  0  0  0  0  0  0999 V2000
   -0.0187    1.5258    0.0104 C   0  0  3  0  0  0  0  0  0  1  0  0
    1.4168    2.0562   -0.0004 C   0  0  0  0  0  0  0  0  0  2  0  0
    1.3970    3.5862   -0.0252 C   0  0  3  0  0  0  0  0  0  3  0  0
    0.6997    4.1043    1.2366 C   0  0  0  0  0  0  0  0  0  4  0  0
   -0.6294    3.4850    1.3305 N   0  0  3  0  0  0  0  0  0  5  0  0
   -0.7320    2.0205    1.2726 C   0  0  0  0  0  0  0  0  0  6  0  0
    0.0021   -0.0041    0.0020 C   0  0  0  0  0  0  0  0  0  7  0  0
    2.8321    4.1149   -0.0691 C   0  0  0  0  0  0  0  0  0  8  0  0
   -1.9859    4.4199    1.4985 S   0  0  3  0  0  0  0  0  0  9  0  0
   -2.5714    4.7943   -0.1207 C   0  0  0  0  0  0  0  0  0 10  0  0
   -2.9689    3.5734    2.0784 O   0  0  0  0  0  0  0  0  0 11  0  0
   -1.5391    5.6543    2.0424 O   0  0  0  0  0  0  0  0  0 12  0  0
   -3.4767    3.9553   -0.7354 C   0  0  0  0  0  0  0  0  0 13  0  0
   -3.9446    4.2560   -2.0166 C   0  0  0  0  0  0  0  0  0 14  0  0
   -3.4908    5.4069   -2.6666 C   0  0  0  0  0  0  0  0  0 15  0  0
   -2.5838    6.2380   -2.0382 C   0  0  0  0  0  0  0  0  0 16  0  0
   -2.1257    5.9328   -0.7697 C   0  0  0  0  0  0  0  0  0 17  0  0
   -4.9136    3.3620   -2.6812 C   0  0  0  0  0  0  0  0  0 18  0  0
   -5.3187    3.6264   -3.7956 O   0  0  0  0  0  0  0  0  0 19  0  0
   -5.3486    2.2531   -2.0519 O   0  0  0  0  0  0  0  0  0 20  0  0
   -4.0648    5.7908   -4.2593 Cl  0  0  0  0  0  0  0  0  0 21  0  0
   -0.5468    1.8873   -0.8719 H   0  0  0  0  0  0  0  0  0 22  0  0
    1.9371    1.7142    0.8943 H   0  0  0  0  0  0  0  0  0 23  0  0
    1.9343    1.6854   -0.8852 H   0  0  0  0  0  0  0  0  0 24  0  0
    0.8554    3.9288   -0.9069 H   0  0  0  0  0  0  0  0  0 25  0  0
    1.2889    3.8397    2.1146 H   0  0  0  0  0  0  0  0  0 26  0  0
    0.5946    5.1876    1.1774 H   0  0  0  0  0  0  0  0  0 27  0  0
   -1.7817    1.7289    1.2371 H   0  0  0  0  0  0  0  0  0 28  0  0
   -0.2595    1.5860    2.1535 H   0  0  0  0  0  0  0  0  0 29  0  0
    0.5293   -0.3651    0.8851 H   0  0  0  0  0  0  0  0  0 30  0  0
   -1.0205   -0.3814    0.0098 H   0  0  0  0  0  0  0  0  0 31  0  0
    0.5123   -0.3556   -0.8948 H   0  0  0  0  0  0  0  0  0 32  0  0
    3.3733    3.7706    0.8122 H   0  0  0  0  0  0  0  0  0 33  0  0
    3.3278    3.7460   -0.9671 H   0  0  0  0  0  0  0  0  0 34  0  0
    2.8175    5.2047   -0.0838 H   0  0  0  0  0  0  0  0  0 35  0  0
   -3.8229    3.0673   -0.2274 H   0  0  0  0  0  0  0  0  0 36  0  0
   -2.2318    7.1280   -2.5386 H   0  0  0  0  0  0  0  0  0 37  0  0
   -1.4166    6.5860   -0.2829 H   0  0  0  0  0  0  0  0  0 38  0  0
   -5.9833    1.6676   -2.4871 H   0  0  0  0  0  0  0  0  0 39  0  0
  1  7  1  0  0  0  0
  1  2  1  0  0  0  0
  1  6  1  0  0  0  0
  1 22  1  0  0  0  0
  2  3  1  0  0  0  0
  2 23  1  0  0  0  0
  2 24  1  0  0  0  0
  3  4  1  0  0  0  0
  3  8  1  0  0  0  0
  3 25  1  0  0  0  0
  4  5  1  0  0  0  0
  4 26  1  0  0  0  0
  4 27  1  0  0  0  0
  5  6  1  0  0  0  0
  5  9  1  0  0  0  0
  6 28  1  0  0  0  0
  6 29  1  0  0  0  0
  7 30  1  0  0  0  0
  7 31  1  0  0  0  0
  7 32  1  0  0  0  0
  8 33  1  0  0  0  0
  8 34  1  0  0  0  0
  8 35  1  0  0  0  0
  9 11  2  0  0  0  0
  9 12  2  0  0  0  0
  9 10  1  0  0  0  0
 10 13  2  0  0  0  0
 10 17  1  0  0  0  0
 13 14  1  0  0  0  0
 13 36  1  0  0  0  0
 14 15  2  0  0  0  0
 14 18  1  0  0  0  0
 15 16  1  0  0  0  0
 15 21  1  0  0  0  0
 16 17  2  0  0  0  0
 16 37  1  0  0  0  0
 17 38  1  0  0  0  0
 18 19  2  0  0  0  0
 18 20  1  0  0  0  0
 20 39  1  0  0  0  0
M  END
>  <Substance ID> (453)
453

>  <Mouse_Female_Canc> (453)
ND

>  <SAL> (453)
ND

>  <Rat_Male_Canc> (453)
3

>  <TD50_Rat> (453)
4.85

>  <TD50_Mouse> (453)
ND

>  <Rat_Female_Canc> (453)
ND

>  <Canc> (453)
3

>  <MolWeight> (453)
331.81

>  <Mouse_Male_Canc> (453)
ND

>  <Mouse_Male_NTP> (453)
ND

>  <ChemName> (453)
Tibric acid

>  <Rat_Male_NTP> (453)
ND

>  <Reference> (453)
CPDB

>  <Formula> (453)
C14H18ClNO4S

>  <SMILES> (453)
C1=C(C=CC(=C1C(=O)O)Cl)S(N2CC(CC(C2)C)C)(=O)=O

>  <Rat_Female_NTP> (453)
ND

>  <CAS> (453)
37087-94-8

>  <Mouse_Female_NTP> (453)
ND

>  <Synonyms> (453)
2-Chloro-5-(3,5-dimethylpiperidinosulfonyl)benzoic acid.

$$$$
454


 36 39  0  0  0  0  0  0  0  0999 V2000
   32.7974  -42.4254   -0.7923 C   0  0  0  0  0  0  0  0  0  0  0  0
   31.8479  -41.3594   -0.2617 C   0  0  0  0  0  0  0  0  0  0  0  0
   32.3876  -40.1516   -0.3024 C   0  0  0  0  0  0  0  0  0  0  0  0
   30.3612  -39.1287    0.4614 C   0  0  0  0  0  0  0  0  0  0  0  0
   29.7523  -40.4947    0.5019 C   0  0  0  0  0  0  0  0  0  0  0  0
   31.6369  -38.9643    0.0834 C   0  0  0  0  0  0  0  0  0  0  0  0
   30.4761  -41.5667    0.1656 C   0  0  0  0  0  0  0  0  0  0  0  0
   33.7478  -40.2332   -0.9344 C   0  0  2  0  0  0  0  0  0  0  0  0
   34.1191  -41.6450   -0.5364 C   0  0  2  0  0  0  0  0  0  0  0  0
   34.4232  -41.5699    0.9452 C   0  0  0  0  0  0  0  0  0  0  0  0
   35.6267  -40.7644    1.1534 O   0  0  0  0  0  0  0  0  0  0  0  0
   34.7894  -39.2387   -0.5525 C   0  0  0  0  0  0  0  0  0  0  0  0
   35.6895  -39.5434    0.3938 C   0  0  0  0  0  0  0  0  0  0  0  0
   36.8778  -37.4553   -0.0123 C   0  0  0  0  0  0  0  0  0  0  0  0
   35.8609  -37.1128   -1.0038 C   0  0  0  0  0  0  0  0  0  0  0  0
   36.7959  -38.6061    0.6555 C   0  0  0  0  0  0  0  0  0  0  0  0
   34.8756  -37.9666   -1.2700 C   0  0  0  0  0  0  0  0  0  0  0  0
   37.9344  -36.5782    0.2300 O   0  0  0  0  0  0  0  0  0  0  0  0
   37.7739  -38.9347    1.5867 O   0  0  0  0  0  0  0  0  0  0  0  0
   35.2665  -42.1740   -1.1998 O   0  0  0  0  0  0  0  0  0  0  0  0
   28.4232  -40.6517    0.8859 O   0  0  0  0  0  0  0  0  0  0  0  0
   29.5922  -38.0235    0.8110 O   0  0  0  0  0  0  0  0  0  0  0  0
   33.5478  -40.1595   -2.0058 H   0  0  0  0  0  0  0  0  0  0  0  0
   32.7481  -43.2762   -0.2692 H   0  0  0  0  0  0  0  0  0  0  0  0
   32.6500  -42.6206   -1.7619 H   0  0  0  0  0  0  0  0  0  0  0  0
   32.0587  -38.0578    0.0668 H   0  0  0  0  0  0  0  0  0  0  0  0
   30.0838  -42.4856    0.2071 H   0  0  0  0  0  0  0  0  0  0  0  0
   33.6526  -41.1480    1.4230 H   0  0  0  0  0  0  0  0  0  0  0  0
   34.5729  -42.4919    1.3022 H   0  0  0  0  0  0  0  0  0  0  0  0
   35.9054  -36.2360   -1.4828 H   0  0  0  0  0  0  0  0  0  0  0  0
   34.1917  -37.7380   -1.9629 H   0  0  0  0  0  0  0  0  0  0  0  0
   38.5338  -36.9634    0.9316 H   0  0  0  0  0  0  0  0  0  0  0  0
   38.4445  -38.1950    1.6415 H   0  0  0  0  0  0  0  0  0  0  0  0
   36.0660  -41.6147   -0.9810 H   0  0  0  0  0  0  0  0  0  0  0  0
   28.1799  -41.6212    0.8577 H   0  0  0  0  0  0  0  0  0  0  0  0
   30.1445  -37.1937    0.7311 H   0  0  0  0  0  0  0  0  0  0  0  0
  2  1  1  0  0  0  0
  1  9  1  0  0  0  0
  3  8  1  0  0  0  0
  2  3  2  0  0  0  0
  4  5  1  0  0  0  0
  2  7  1  0  0  0  0
  3  6  1  0  0  0  0
  6  4  2  0  0  0  0
  5  7  2  0  0  0  0
  8  9  1  0  0  0  0
  8 12  1  0  0  0  0
  9 10  1  0  0  0  0
 10 11  1  0  0  0  0
 11 13  1  0  0  0  0
 12 13  2  0  0  0  0
 14 15  1  0  0  0  0
 12 17  1  0  0  0  0
 13 16  1  0  0  0  0
 16 14  2  0  0  0  0
 15 17  2  0  0  0  0
 14 18  1  0  0  0  0
 16 19  1  0  0  0  0
  9 20  1  6  0  0  0
  5 21  1  0  0  0  0
  4 22  1  0  0  0  0
  8 23  1  6  0  0  0
  1 24  1  0  0  0  0
  1 25  1  0  0  0  0
  6 26  1  0  0  0  0
  7 27  1  0  0  0  0
 10 28  1  0  0  0  0
 10 29  1  0  0  0  0
 15 30  1  0  0  0  0
 17 31  1  0  0  0  0
 18 32  1  0  0  0  0
 19 33  1  0  0  0  0
 20 34  1  0  0  0  0
 21 35  1  0  0  0  0
 22 36  1  0  0  0  0
M  END
>  <Substance ID> (454)
454

>  <Mouse_Female_Canc> (454)
ND

>  <SAL> (454)
1

>  <Rat_Male_Canc> (454)
3

>  <TD50_Rat> (454)
1000

>  <TD50_Mouse> (454)
ND

>  <Rat_Female_Canc> (454)
3

>  <Canc> (454)
3

>  <MolWeight> (454)
302.28

>  <Mouse_Male_Canc> (454)
ND

>  <Mouse_Male_NTP> (454)
ND

>  <ChemName> (454)
Hematoxylin

>  <Rat_Male_NTP> (454)
ND

>  <Reference> (454)
CPDB

>  <Formula> (454)
C16H14O6

>  <SMILES> (454)
O[C@]12C(C3=CC(=C(C=C3C1)O)O)C4=C(C(=C(C=C4)O)O)OC2

>  <Rat_Female_NTP> (454)
ND

>  <CAS> (454)
517-28-2

>  <Mouse_Female_NTP> (454)
ND

>  <Synonyms> (454)
7,11b-dihydrobenz[b]indeno[1,2-d]pyran-3,4,6a,9,10(6H)-pentol; C.I.75290; cis-(+)-7,11b-dihydrobenz[b]indeno(1,2-d)pyran-3,4,6a,9,10(6H)-pentol; hematoxiline; Hematoxylin, certified; Hematoxylin n-Hydrate; Hydroxybrasilin; hydroxybrazilin; Natural Black I.

$$$$
455


 40 41  0  0  0  0  0  0  0  0999 V2000
   28.5629  -50.3098    0.0038 C   0  0  0  0  0  0  0  0  0  0  0  0
   29.1297  -51.5123   -0.0220 C   0  0  0  0  0  0  0  0  0  0  0  0
   31.3728  -50.5404   -0.0105 C   0  0  0  0  0  0  0  0  0  0  0  0
   30.7201  -49.2216    0.0168 C   0  0  0  0  0  0  0  0  0  0  0  0
   30.5948  -51.6487   -0.0298 C   0  0  0  0  0  0  0  0  0  0  0  0
   29.3928  -49.1151    0.0238 C   0  0  0  0  0  0  0  0  0  0  0  0
   32.8867  -50.5619   -0.0115 C   0  0  0  0  0  0  0  0  0  0  0  0
   28.2629  -52.7420   -0.0420 C   0  0  0  0  0  0  0  0  0  0  0  0
   31.1452  -53.0601   -0.0586 C   0  0  0  0  0  0  0  0  0  0  0  0
   33.5355  -51.6491   -0.0264 N   0  0  0  0  0  0  0  0  0  0  0  0
   35.6249  -50.6378    0.0033 N   0  0  0  0  0  0  0  0  0  0  0  0
   34.9726  -49.3761    0.0166 C   0  0  0  0  0  0  0  0  0  0  0  0
   34.9297  -51.7074   -0.0175 C   0  0  0  0  0  0  0  0  0  0  0  0
   33.6404  -49.3160    0.0106 C   0  0  0  0  0  0  0  0  0  0  0  0
   35.8978  -47.9140    0.0442 Cl  0  0  0  0  0  0  0  0  0  0  0  0
   35.5273  -53.1039   -0.0219 C   0  0  0  0  0  0  0  0  0  0  0  0
   37.0316  -53.2828    0.0422 C   0  0  0  0  0  0  0  0  0  0  0  0
   37.9530  -52.2404    0.0079 N   0  0  0  0  0  0  0  0  0  0  0  0
   37.5831  -54.7433    0.1509 S   0  0  0  0  0  0  0  0  0  0  0  0
   39.3424  -52.6241    0.0964 C   0  0  0  0  0  0  0  0  0  0  0  0
   40.2902  -51.4443   -0.1355 C   0  0  0  0  0  0  0  0  0  0  0  0
   41.6407  -51.9222   -0.0422 O   0  0  0  0  0  0  0  0  0  0  0  0
   27.5663  -50.2266    0.0095 H   0  0  0  0  0  0  0  0  0  0  0  0
   31.2812  -48.3940    0.0304 H   0  0  0  0  0  0  0  0  0  0  0  0
   28.9653  -48.2113    0.0427 H   0  0  0  0  0  0  0  0  0  0  0  0
   28.8411  -53.5576   -0.0604 H   0  0  0  0  0  0  0  0  0  0  0  0
   27.6818  -52.7275   -0.8557 H   0  0  0  0  0  0  0  0  0  0  0  0
   27.6890  -52.7592    0.7767 H   0  0  0  0  0  0  0  0  0  0  0  0
   32.1446  -53.0286   -0.0616 H   0  0  0  0  0  0  0  0  0  0  0  0
   30.8244  -53.5267   -0.8829 H   0  0  0  0  0  0  0  0  0  0  0  0
   30.8302  -53.5577    0.7496 H   0  0  0  0  0  0  0  0  0  0  0  0
   33.1689  -48.4341    0.0211 H   0  0  0  0  0  0  0  0  0  0  0  0
   35.1453  -53.5842    0.7677 H   0  0  0  0  0  0  0  0  0  0  0  0
   35.2191  -53.5474   -0.8635 H   0  0  0  0  0  0  0  0  0  0  0  0
   37.6704  -51.2846   -0.0730 H   0  0  0  0  0  0  0  0  0  0  0  0
   39.5142  -52.9996    1.0071 H   0  0  0  0  0  0  0  0  0  0  0  0
   39.5265  -53.3241   -0.5936 H   0  0  0  0  0  0  0  0  0  0  0  0
   40.1312  -51.0571   -1.0436 H   0  0  0  0  0  0  0  0  0  0  0  0
   40.1318  -50.7425    0.5591 H   0  0  0  0  0  0  0  0  0  0  0  0
   42.2744  -51.1632   -0.1914 H   0  0  0  0  0  0  0  0  0  0  0  0
  1  2  2  0  0  0  0
  3  4  1  0  0  0  0
  1  6  1  0  0  0  0
  2  5  1  0  0  0  0
  5  3  2  0  0  0  0
  4  6  2  0  0  0  0
  3  7  1  0  0  0  0
  2  8  1  0  0  0  0
  5  9  1  0  0  0  0
  7 10  2  0  0  0  0
 11 12  1  0  0  0  0
  7 14  1  0  0  0  0
 10 13  1  0  0  0  0
 13 11  2  0  0  0  0
 12 14  2  0  0  0  0
 12 15  1  0  0  0  0
 13 16  1  0  0  0  0
 16 17  1  0  0  0  0
 17 18  1  0  0  0  0
 17 19  2  0  0  0  0
 18 20  1  0  0  0  0
 20 21  1  0  0  0  0
 21 22  1  0  0  0  0
  1 23  1  0  0  0  0
  4 24  1  0  0  0  0
  6 25  1  0  0  0  0
  8 26  1  0  0  0  0
  8 27  1  0  0  0  0
  8 28  1  0  0  0  0
  9 29  1  0  0  0  0
  9 30  1  0  0  0  0
  9 31  1  0  0  0  0
 14 32  1  0  0  0  0
 16 33  1  0  0  0  0
 16 34  1  0  0  0  0
 18 35  1  0  0  0  0
 20 36  1  0  0  0  0
 20 37  1  0  0  0  0
 21 38  1  0  0  0  0
 21 39  1  0  0  0  0
 22 40  1  0  0  0  0
M  END
>  <Substance ID> (455)
455

>  <Mouse_Female_Canc> (455)
3

>  <SAL> (455)
1

>  <Rat_Male_Canc> (455)
3

>  <TD50_Rat> (455)
6.49

>  <TD50_Mouse> (455)
44.6

>  <Rat_Female_Canc> (455)
ND

>  <Canc> (455)
3

>  <MolWeight> (455)
335.85

>  <Mouse_Male_Canc> (455)
ND

>  <Mouse_Male_NTP> (455)
ND

>  <ChemName> (455)
4-Chloro-6-(2,3-xylidino)-2-pyrimidinylthio(n-beta-hydroxyethyl) acetamide

>  <Rat_Male_NTP> (455)
ND

>  <Reference> (455)
CPDB

>  <Formula> (455)
C16H18ClN3OS

>  <SMILES> (455)
C1(=CC(=NC(=N1)CC(NCCO)=S)Cl)C2=CC=CC(=C2C)C

>  <Rat_Female_NTP> (455)
ND

>  <CAS> (455)
65089-17-0

>  <Mouse_Female_NTP> (455)
ND

>  <Synonyms> (455)
2-((4-Chloro-6-(2,3-xylidino)-2-pyrimidinyl)thio)-N-(2-hydroxyethyl)acetamide; Pirinixil.

$$$$
456


 35 37  0  0  0  0  0  0  0  0999 V2000
   30.1165  -61.7773   -0.1636 C   0  0  0  0  0  0  0  0  0  0  0  0
   29.1547  -60.6128   -0.1209 C   0  0  0  0  0  0  0  0  0  0  0  0
   29.7789  -59.4638   -0.0334 C   0  0  0  0  0  0  0  0  0  0  0  0
   27.7367  -58.2378   -0.0014 C   0  0  0  0  0  0  0  0  0  0  0  0
   27.0209  -59.5461   -0.0980 C   0  0  0  0  0  0  0  0  0  0  0  0
   29.0731  -58.2000    0.0274 C   0  0  0  0  0  0  0  0  0  0  0  0
   27.7091  -60.6903   -0.1592 C   0  0  0  0  0  0  0  0  0  0  0  0
   31.1827  -59.6862    0.0085 C   0  0  0  0  0  0  0  0  0  0  0  0
   31.4443  -60.9888   -0.0383 C   0  0  0  0  0  0  0  0  0  0  0  0
   33.8184  -60.5045    0.1058 C   0  0  0  0  0  0  0  0  0  0  0  0
   33.4667  -59.0646    0.1375 C   0  0  0  0  0  0  0  0  0  0  0  0
   32.9077  -61.4873    0.0278 C   0  0  0  0  0  0  0  0  0  0  0  0
   32.1976  -58.6731    0.0995 C   0  0  0  0  0  0  0  0  0  0  0  0
   33.4160  -62.9459    0.0137 N   0  0  0  0  0  0  0  0  0  0  0  0
   34.9281  -63.1598   -0.1170 C   0  0  0  0  0  0  0  0  0  0  0  0
   35.6413  -64.4755    0.1408 C   0  0  0  0  0  0  0  0  0  0  0  0
   32.4656  -64.1059    0.1735 C   0  0  0  0  0  0  0  0  0  0  0  0
   32.6883  -65.5019   -0.3927 C   0  0  0  0  0  0  0  0  0  0  0  0
   35.6815  -62.2203   -0.3948 O   0  0  0  0  0  0  0  0  0  0  0  0
   31.4100  -63.9525    0.7848 O   0  0  0  0  0  0  0  0  0  0  0  0
   29.9792  -62.4066    0.6013 H   0  0  0  0  0  0  0  0  0  0  0  0
   30.0585  -62.2815   -1.0253 H   0  0  0  0  0  0  0  0  0  0  0  0
   27.2139  -57.3865    0.0419 H   0  0  0  0  0  0  0  0  0  0  0  0
   26.0213  -59.5656   -0.1170 H   0  0  0  0  0  0  0  0  0  0  0  0
   29.5666  -57.3324    0.0885 H   0  0  0  0  0  0  0  0  0  0  0  0
   27.2410  -61.5712   -0.2292 H   0  0  0  0  0  0  0  0  0  0  0  0
   34.7852  -60.7568    0.1446 H   0  0  0  0  0  0  0  0  0  0  0  0
   34.1936  -58.3797    0.1880 H   0  0  0  0  0  0  0  0  0  0  0  0
   31.9562  -57.7033    0.1333 H   0  0  0  0  0  0  0  0  0  0  0  0
   36.6227  -64.3585   -0.0113 H   0  0  0  0  0  0  0  0  0  0  0  0
   35.2889  -65.1738   -0.4822 H   0  0  0  0  0  0  0  0  0  0  0  0
   35.4827  -64.7616    1.0857 H   0  0  0  0  0  0  0  0  0  0  0  0
   31.9154  -66.0879   -0.1494 H   0  0  0  0  0  0  0  0  0  0  0  0
   33.5298  -65.8859   -0.0127 H   0  0  0  0  0  0  0  0  0  0  0  0
   32.7660  -65.4498   -1.3884 H   0  0  0  0  0  0  0  0  0  0  0  0
  2  1  1  0  0  0  0
  1  9  1  0  0  0  0
  3  8  1  0  0  0  0
  2  3  2  0  0  0  0
  4  5  1  0  0  0  0
  2  7  1  0  0  0  0
  3  6  1  0  0  0  0
  6  4  2  0  0  0  0
  5  7  2  0  0  0  0
  8  9  2  0  0  0  0
 10 11  1  0  0  0  0
  8 13  1  0  0  0  0
  9 12  1  0  0  0  0
 12 10  2  0  0  0  0
 11 13  2  0  0  0  0
 12 14  1  0  0  0  0
 14 15  1  0  0  0  0
 15 16  1  0  0  0  0
 14 17  1  0  0  0  0
 17 18  1  0  0  0  0
 15 19  2  0  0  0  0
 17 20  2  0  0  0  0
  1 21  1  0  0  0  0
  1 22  1  0  0  0  0
  4 23  1  0  0  0  0
  5 24  1  0  0  0  0
  6 25  1  0  0  0  0
  7 26  1  0  0  0  0
 10 27  1  0  0  0  0
 11 28  1  0  0  0  0
 13 29  1  0  0  0  0
 16 30  1  0  0  0  0
 16 31  1  0  0  0  0
 16 32  1  0  0  0  0
 18 33  1  0  0  0  0
 18 34  1  0  0  0  0
 18 35  1  0  0  0  0
M  END
>  <Substance ID> (456)
456

>  <Mouse_Female_Canc> (456)
ND

>  <SAL> (456)
ND

>  <Rat_Male_Canc> (456)
ND

>  <TD50_Rat> (456)
19

>  <TD50_Mouse> (456)
ND

>  <Rat_Female_Canc> (456)
3

>  <Canc> (456)
3

>  <MolWeight> (456)
265.31

>  <Mouse_Male_Canc> (456)
ND

>  <Mouse_Male_NTP> (456)
ND

>  <ChemName> (456)
N-1-diacetamidofluorene

>  <Rat_Male_NTP> (456)
ND

>  <Reference> (456)
CPDB

>  <Formula> (456)
C17H15NO2

>  <SMILES> (456)
O=C(N(C(=O)C)c3c2c(c1ccccc1C2)ccc3)C

>  <Rat_Female_NTP> (456)
ND

>  <CAS> (456)
63019-65-8

>  <Mouse_Female_NTP> (456)
ND

>  <Synonyms> (456)
N-1-fluorenyldiacetamide.

$$$$
457


 35 36  0  0  0  0  0  0  0  0999 V2000
   37.2686  -71.4024    0.0714 C   0  0  0  0  0  0  0  0  0  0  0  0
   37.6959  -72.6078    0.0469 N   0  0  0  0  0  0  0  0  0  0  0  0
   39.9423  -71.9136   -0.0205 N   0  0  0  0  0  0  0  0  0  0  0  0
   39.5325  -70.5983    0.0032 C   0  0  0  0  0  0  0  0  0  0  0  0
   39.1053  -72.8680    0.0028 C   0  0  0  0  0  0  0  0  0  0  0  0
   38.2404  -70.3191    0.0516 C   0  0  0  0  0  0  0  0  0  0  0  0
   40.6999  -69.3264   -0.0305 Cl  0  0  0  0  0  0  0  0  0  0  0  0
   39.7729  -74.5036   -0.0180 S   0  0  0  0  0  0  0  0  0  0  0  0
   41.5778  -74.2567   -0.0282 C   0  0  0  0  0  0  0  0  0  0  0  0
   42.3416  -75.5416   -0.0225 C   0  0  0  0  0  0  0  0  0  0  0  0
   43.7362  -75.5084   -0.0206 O   0  0  0  0  0  0  0  0  0  0  0  0
   41.7485  -76.6252   -0.0171 O   0  0  0  0  0  0  0  0  0  0  0  0
   35.8819  -70.9916    0.1065 N   0  0  0  0  0  0  0  0  0  0  0  0
   34.5759  -71.6516    0.0518 C   0  0  0  0  0  0  0  0  0  0  0  0
   31.8771  -72.4905   -0.0745 C   0  0  0  0  0  0  0  0  0  0  0  0
   32.8553  -73.3900   -0.0525 C   0  0  0  0  0  0  0  0  0  0  0  0
   33.4560  -70.6905    0.0298 C   0  0  0  0  0  0  0  0  0  0  0  0
   34.2772  -72.9747    0.0149 C   0  0  0  0  0  0  0  0  0  0  0  0
   32.1897  -71.0837   -0.0300 C   0  0  0  0  0  0  0  0  0  0  0  0
   32.5048  -74.8492   -0.1011 C   0  0  0  0  0  0  0  0  0  0  0  0
   35.2875  -74.0800    0.0362 C   0  0  0  0  0  0  0  0  0  0  0  0
   37.9327  -69.3679    0.0745 H   0  0  0  0  0  0  0  0  0  0  0  0
   41.8247  -73.7427   -0.8497 H   0  0  0  0  0  0  0  0  0  0  0  0
   41.8323  -73.7309    0.7835 H   0  0  0  0  0  0  0  0  0  0  0  0
   44.0923  -76.4428   -0.0167 H   0  0  0  0  0  0  0  0  0  0  0  0
   35.7918  -69.9992    0.1897 H   0  0  0  0  0  0  0  0  0  0  0  0
   30.9241  -72.7895   -0.1220 H   0  0  0  0  0  0  0  0  0  0  0  0
   33.6578  -69.7115    0.0610 H   0  0  0  0  0  0  0  0  0  0  0  0
   31.4544  -70.4060   -0.0441 H   0  0  0  0  0  0  0  0  0  0  0  0
   33.3426  -75.3947   -0.0771 H   0  0  0  0  0  0  0  0  0  0  0  0
   32.0046  -75.0445   -0.9447 H   0  0  0  0  0  0  0  0  0  0  0  0
   31.9336  -75.0817    0.6861 H   0  0  0  0  0  0  0  0  0  0  0  0
   36.2074  -73.6905    0.0821 H   0  0  0  0  0  0  0  0  0  0  0  0
   35.1995  -74.6287   -0.7952 H   0  0  0  0  0  0  0  0  0  0  0  0
   35.1312  -74.6597    0.8358 H   0  0  0  0  0  0  0  0  0  0  0  0
  1  2  2  0  0  0  0
  3  4  1  0  0  0  0
  1  6  1  0  0  0  0
  2  5  1  0  0  0  0
  5  3  2  0  0  0  0
  4  6  2  0  0  0  0
  4  7  1  0  0  0  0
  5  8  1  0  0  0  0
  8  9  1  0  0  0  0
  9 10  1  0  0  0  0
 10 11  1  0  0  0  0
 10 12  2  0  0  0  0
  1 13  1  0  0  0  0
 13 14  1  0  0  0  0
 15 16  2  0  0  0  0
 14 17  1  0  0  0  0
 15 19  1  0  0  0  0
 16 18  1  0  0  0  0
 18 14  2  0  0  0  0
 17 19  2  0  0  0  0
 16 20  1  0  0  0  0
 18 21  1  0  0  0  0
  6 22  1  0  0  0  0
  9 23  1  0  0  0  0
  9 24  1  0  0  0  0
 11 25  1  0  0  0  0
 13 26  1  0  0  0  0
 15 27  1  0  0  0  0
 17 28  1  0  0  0  0
 19 29  1  0  0  0  0
 20 30  1  0  0  0  0
 20 31  1  0  0  0  0
 20 32  1  0  0  0  0
 21 33  1  0  0  0  0
 21 34  1  0  0  0  0
 21 35  1  0  0  0  0
M  END
>  <Substance ID> (457)
457

>  <Mouse_Female_Canc> (457)
ND

>  <SAL> (457)
1

>  <Rat_Male_Canc> (457)
3

>  <TD50_Rat> (457)
4.36

>  <TD50_Mouse> (457)
10.8

>  <Rat_Female_Canc> (457)
ND

>  <Canc> (457)
3

>  <MolWeight> (457)
323.80

>  <Mouse_Male_Canc> (457)
3

>  <Mouse_Male_NTP> (457)
ND

>  <ChemName> (457)
[4-Chloro-6-(2,3-xylidino)-2-pyrimidinylthio]acetic acid

>  <Rat_Male_NTP> (457)
ND

>  <Reference> (457)
CPDB

>  <Formula> (457)
C14H14ClN3O2S

>  <SMILES> (457)
ClC1=CC(=NC(=N1)SCC(=O)O)NC2=CC=CC(=C2C)C

>  <Rat_Female_NTP> (457)
ND

>  <CAS> (457)
50892-23-4

>  <Mouse_Female_NTP> (457)
ND

>  <Synonyms> (457)
Pirinixic acid.

$$$$
458


 26 27  0  0  0  0  0  0  0  0999 V2000
   30.7203  -85.9234   -0.0004 C   0  0  0  0  0  0  0  0  0  0  0  0
   31.3923  -87.0718    0.0006 C   0  0  0  0  0  0  0  0  0  0  0  0
   33.5176  -85.9091    0.0005 C   0  0  0  0  0  0  0  0  0  0  0  0
   32.7781  -84.6434    0.0002 C   0  0  0  0  0  0  0  0  0  0  0  0
   32.8548  -87.0643   -0.0001 C   0  0  0  0  0  0  0  0  0  0  0  0
   31.4448  -84.6518   -0.0005 C   0  0  0  0  0  0  0  0  0  0  0  0
   34.9852  -85.9167   -0.0003 C   0  0  0  0  0  0  0  0  0  0  0  0
   35.6354  -87.0789    0.0000 C   0  0  0  0  0  0  0  0  0  0  0  0
   37.7811  -85.9595    0.0003 C   0  0  0  0  0  0  0  0  0  0  0  0
   37.0688  -84.6804    0.0004 C   0  0  0  0  0  0  0  0  0  0  0  0
   37.0976  -87.1012   -0.0002 C   0  0  0  0  0  0  0  0  0  0  0  0
   35.7368  -84.6579    0.0001 C   0  0  0  0  0  0  0  0  0  0  0  0
   29.3235  -85.9326   -0.0000 N   0  0  0  0  0  0  0  0  0  0  0  0
   30.5680  -83.1620   -0.0001 Cl  0  0  0  0  0  0  0  0  0  0  0  0
   37.9611  -83.1993   -0.0009 Cl  0  0  0  0  0  0  0  0  0  0  0  0
   39.1776  -85.9831    0.0002 N   0  0  0  0  0  0  0  0  0  0  0  0
   30.8971  -87.9406    0.0018 H   0  0  0  0  0  0  0  0  0  0  0  0
   33.2732  -83.7745    0.0005 H   0  0  0  0  0  0  0  0  0  0  0  0
   33.3582  -87.9284   -0.0009 H   0  0  0  0  0  0  0  0  0  0  0  0
   35.1231  -87.9376    0.0004 H   0  0  0  0  0  0  0  0  0  0  0  0
   37.5841  -87.9749   -0.0006 H   0  0  0  0  0  0  0  0  0  0  0  0
   35.2505  -83.7841    0.0001 H   0  0  0  0  0  0  0  0  0  0  0  0
   28.8177  -85.0699   -0.0008 H   0  0  0  0  0  0  0  0  0  0  0  0
   28.8292  -86.8019    0.0010 H   0  0  0  0  0  0  0  0  0  0  0  0
   39.6628  -86.8575    0.0001 H   0  0  0  0  0  0  0  0  0  0  0  0
   39.6922  -85.1257    0.0002 H   0  0  0  0  0  0  0  0  0  0  0  0
  1  2  2  0  0  0  0
  3  4  1  0  0  0  0
  1  6  1  0  0  0  0
  2  5  1  0  0  0  0
  5  3  2  0  0  0  0
  4  6  2  0  0  0  0
  3  7  1  0  0  0  0
  7  8  2  0  0  0  0
  9 10  1  0  0  0  0
  7 12  1  0  0  0  0
  8 11  1  0  0  0  0
 11  9  2  0  0  0  0
 10 12  2  0  0  0  0
  1 13  1  0  0  0  0
  6 14  1  0  0  0  0
 10 15  1  0  0  0  0
  9 16  1  0  0  0  0
  2 17  1  0  0  0  0
  4 18  1  0  0  0  0
  5 19  1  0  0  0  0
  8 20  1  0  0  0  0
 11 21  1  0  0  0  0
 12 22  1  0  0  0  0
 13 23  1  0  0  0  0
 13 24  1  0  0  0  0
 16 25  1  0  0  0  0
 16 26  1  0  0  0  0
M  END
>  <Substance ID> (458)
458

>  <Mouse_Female_Canc> (458)
ND

>  <SAL> (458)
3

>  <Rat_Male_Canc> (458)
3

>  <TD50_Rat> (458)
28.1

>  <TD50_Mouse> (458)
ND

>  <Rat_Female_Canc> (458)
3

>  <Canc> (458)
3

>  <MolWeight> (458)
253.13

>  <Mouse_Male_Canc> (458)
ND

>  <Mouse_Male_NTP> (458)
ND

>  <ChemName> (458)
3,3'-Dichlorobenzidine

>  <Rat_Male_NTP> (458)
ND

>  <Reference> (458)
CPDB

>  <Formula> (458)
C12H10Cl2N2

>  <SMILES> (458)
ClC1=C(C=CC(=C1)C2=CC(=C(C=C2)N)Cl)N

>  <Rat_Female_NTP> (458)
ND

>  <CAS> (458)
91-94-1

>  <Mouse_Female_NTP> (458)
ND

>  <Synonyms> (458)
o,o'-dichlorobenzidine; 3,3'-Dichloro-(1,1'-biphenyl)-4,4'-diamine; 3,3'-dichloro-4,4'-diaminobiphenyl; 3,3'-dichloro-4,4'-biphenyldiamine; 3,3-Dichlorobenzidine; 3,3'-dichlorobiphenyl-4,4'-diamine; 4,4'-diamino-3,3'-dichlorobiphenyl; dichlorobenzidine; Dichlorobenzidine, 3,3'-; C.I. 23060; DCB.

$$$$
459


 12 11  0  0  0  0  0  0  0  0999 V2000
   35.0185  -93.3298    0.0001 N   0  0  0  0  0  0  0  0  0  0  0  0
   33.8932  -92.3842   -0.0006 C   0  0  0  0  0  0  0  0  0  0  0  0
   32.5661  -93.1651   -0.0005 C   0  0  0  0  0  0  0  0  0  0  0  0
   36.2249  -92.6200   -0.0002 N   0  0  0  0  0  0  0  0  0  0  0  0
   34.9702  -93.9045    0.8170 H   0  0  0  0  0  0  0  0  0  0  0  0
   33.9411  -91.8087    0.8157 H   0  0  0  0  0  0  0  0  0  0  0  0
   33.9415  -91.8095   -0.8175 H   0  0  0  0  0  0  0  0  0  0  0  0
   31.8004  -92.5220   -0.0010 H   0  0  0  0  0  0  0  0  0  0  0  0
   32.5173  -93.7402    0.8161 H   0  0  0  0  0  0  0  0  0  0  0  0
   32.5177  -93.7410   -0.8166 H   0  0  0  0  0  0  0  0  0  0  0  0
   36.9906  -93.2631    0.0003 H   0  0  0  0  0  0  0  0  0  0  0  0
   36.2734  -92.0440    0.8159 H   0  0  0  0  0  0  0  0  0  0  0  0
  1  2  1  0  0  0  0
  2  3  1  0  0  0  0
  1  4  1  0  0  0  0
  1  5  1  0  0  0  0
  2  6  1  0  0  0  0
  2  7  1  0  0  0  0
  3  8  1  0  0  0  0
  3  9  1  0  0  0  0
  3 10  1  0  0  0  0
  4 11  1  0  0  0  0
  4 12  1  0  0  0  0
M  END
>  <Substance ID> (459)
459

>  <Mouse_Female_Canc> (459)
3

>  <SAL> (459)
ND

>  <Rat_Male_Canc> (459)
ND

>  <TD50_Rat> (459)
ND

>  <TD50_Mouse> (459)
6.56

>  <Rat_Female_Canc> (459)
ND

>  <Canc> (459)
3

>  <MolWeight> (459)
60.10

>  <Mouse_Male_Canc> (459)
3

>  <Mouse_Male_NTP> (459)
ND

>  <ChemName> (459)
Ethylhydrazine Hydrochloride

>  <Rat_Male_NTP> (459)
ND

>  <Reference> (459)
CPDB

>  <Formula> (459)
C2H8N2

>  <SMILES> (459)
CCNN

>  <Rat_Female_NTP> (459)
ND

>  <CAS> (459)
18413-14-4

>  <Mouse_Female_NTP> (459)
ND

>  <Synonyms> (459)
-

$$$$
460
 

 28 30  0  0  0  0  0  0  0  0999 V2000
    8.8269  -12.1349    0.1870 N   0  0  0  0  0  0  0  0  0  1  0  0
    7.9304  -11.1551    0.2584 C   0  0  0  0  0  0  0  0  0  2  0  0
    8.3295   -9.8864    0.2462 C   0  0  0  0  0  0  0  0  0  3  0  0
    9.6251   -9.5974    0.1626 C   0  0  0  0  0  0  0  0  0  4  0  0
   10.5217  -10.5772    0.0912 C   0  0  0  0  0  0  0  0  0  5  0  0
   11.8174  -10.2881    0.0076 C   0  0  0  0  0  0  0  0  0  6  0  0
   12.4708   -9.1301   -0.0229 N   0  0  0  0  0  0  0  0  0  7  0  0
   13.7706   -9.3947   -0.1131 C   0  0  0  0  0  0  0  0  0  8  0  0
   13.9214  -10.7154   -0.1384 N   0  0  0  0  0  0  0  0  0  9  0  0
   12.7139  -11.2679   -0.0638 C   0  0  0  0  0  0  0  0  0 10  0  0
   12.3147  -12.5367   -0.0516 C   0  0  0  0  0  0  0  0  0 11  0  0
   11.0190  -12.8257    0.0320 C   0  0  0  0  0  0  0  0  0 12  0  0
   10.1225  -11.8460    0.1034 C   0  0  0  0  0  0  0  0  0 13  0  0
   15.0765  -11.3694   -0.2235 C   0  0  0  0  0  0  0  0  0 14  0  0
   14.7490   -8.4955   -0.1684 N   0  0  0  0  0  0  0  0  0 15  0  0
   13.2142  -13.5164   -0.0516 C   0  0  0  0  0  0  0  0  0 16  0  0
    6.9563  -11.3723    0.3213 H   0  0  0  0  0  0  0  0  0  0  0  0
    7.6554   -9.1497    0.2999 H   0  0  0  0  0  0  0  0  0  0  0  0
    9.9251   -8.6435    0.1534 H   0  0  0  0  0  0  0  0  0  0  0  0
   10.7190  -13.7796    0.0412 H   0  0  0  0  0  0  0  0  0  0  0  0
   14.9033  -12.3542   -0.2232 H   0  0  0  0  0  0  0  0  0  0  0  0
   15.6526  -11.1325    0.5588 H   0  0  0  0  0  0  0  0  0  0  0  0
   15.5432  -11.1138   -1.0702 H   0  0  0  0  0  0  0  0  0  0  0  0
   15.7006   -8.7955   -0.2357 H   0  0  0  0  0  0  0  0  0  0  0  0
   14.5331   -7.5194   -0.1427 H   0  0  0  0  0  0  0  0  0  0  0  0
   12.7457  -14.3997   -0.0416 H   0  0  0  0  0  0  0  0  0  0  0  0
   13.7935  -13.4377    0.7598 H   0  0  0  0  0  0  0  0  0  0  0  0
   13.7807  -13.4494   -0.8729 H   0  0  0  0  0  0  0  0  0  0  0  0
  1  2  1  0  0  0  0
  1 13  2  0  0  0  0
  2  3  2  0  0  0  0
  3  4  1  0  0  0  0
  4  5  2  0  0  0  0
  5  6  1  0  0  0  0
  5 13  1  0  0  0  0
  6  7  1  0  0  0  0
  6 10  2  0  0  0  0
  7  8  2  0  0  0  0
  8  9  1  0  0  0  0
  8 15  1  0  0  0  0
  9 10  1  0  0  0  0
  9 14  1  0  0  0  0
 10 11  1  0  0  0  0
 11 12  2  0  0  0  0
 12 13  1  0  0  0  0
 16 11  1  0  0  0  0
  2 17  1  0  0  0  0
  3 18  1  0  0  0  0
  4 19  1  0  0  0  0
 12 20  1  0  0  0  0
 14 21  1  0  0  0  0
 14 22  1  0  0  0  0
 14 23  1  0  0  0  0
 15 24  1  0  0  0  0
 15 25  1  0  0  0  0
 16 26  1  0  0  0  0
 16 27  1  0  0  0  0
 16 28  1  0  0  0  0
M  END
>  <Substance ID> (460)
460

>  <Mouse_Female_Canc> (460)
3

>  <SAL> (460)
3

>  <Rat_Male_Canc> (460)
ND

>  <TD50_Rat> (460)
ND

>  <TD50_Mouse> (460)
12.3

>  <Rat_Female_Canc> (460)
ND

>  <Canc> (460)
3

>  <MolWeight> (460)
212.25

>  <Mouse_Male_Canc> (460)
3

>  <Mouse_Male_NTP> (460)
ND

>  <ChemName> (460)
MeIQ

>  <Rat_Male_NTP> (460)
ND

>  <Reference> (460)
CPDB

>  <Formula> (460)
C12H12N4

>  <SMILES> (460)
Cc2cc1ncccc1c3nc(N)n(C)c23

>  <Rat_Female_NTP> (460)
ND

>  <CAS> (460)
77094-11-2

>  <Mouse_Female_NTP> (460)
ND

>  <Synonyms> (460)
2-Amino-3,4-dimethyl-3H-imidazo[4,5-f]quinoline; 2-Amino-3,4-dimethylimidazo[4,5-f]quinoline; 3,4-dimethyl-3H-imidazo[4,5-f]quinolin-2-amine; methyl-IQ.

$$$$
461


 30 31  0  0  0  0  0  0  0  0999 V2000
    8.9248    2.2466    0.0000 C   0  0  0  0  0  0  0  0  0  0  0  0
    7.5725    1.8843    0.0000 C   0  0  0  0  0  0  0  0  0  0  0  0
    6.5824    2.8743    0.0000 C   0  0  0  0  0  0  0  0  0  0  0  0
    5.3700    2.1742    0.0000 C   0  0  0  0  0  0  0  0  0  0  0  0
    3.9700    2.1742    0.0000 C   0  0  0  0  0  0  0  0  0  0  0  0
    2.7576    2.8743    0.0000 C   0  0  2  0  0  0  0  0  0  0  0  0
    2.0575    4.0868    0.0000 C   0  0  0  0  0  0  0  0  0  0  0  0
    0.7052    3.7244    0.0000 O   0  0  0  0  0  0  0  0  0  0  0  0
    2.0575    5.4868    0.0000 O   0  0  0  0  0  0  0  0  0  0  0  0
    2.7576    6.6992    0.0000 C   0  0  0  0  0  0  0  0  0  0  0  0
    3.9700    7.3993    0.0000 C   0  0  0  0  0  0  0  0  0  0  0  0
    3.5395    6.4415    0.0000 C   0  0  0  0  0  0  0  0  0  0  0  0
    3.8197    5.4296    0.0000 C   0  0  0  0  0  0  0  0  0  0  0  0
    4.6815    4.8297    0.0000 N   0  0  3  0  0  0  0  0  0  0  0  0
    5.7308    4.9152    0.0000 C   0  0  0  0  0  0  0  0  0  0  0  0
    6.4733    5.6577    0.0000 C   0  0  0  0  0  0  0  0  0  0  0  0
    6.5824    6.6992    0.0000 C   0  0  2  0  0  0  0  0  0  0  0  0
    5.3700    7.3993    0.0000 C   0  0  0  0  0  0  0  0  0  0  0  0
    5.7323    8.7516    0.0000 O   0  0  0  0  0  0  0  0  0  0  0  0
    7.2825    5.4868    0.0000 O   0  0  0  0  0  0  0  0  0  0  0  0
    7.2825    4.0868    0.0000 C   0  0  0  0  0  0  0  0  0  0  0  0
    8.6348    3.7244    0.0000 O   0  0  0  0  0  0  0  0  0  0  0  0
    4.3192    3.4774    0.0000 C   0  0  0  0  0  0  0  0  0  0  0  0
    1.3628    2.7523    0.0000 C   0  0  0  0  0  0  0  0  0  0  0  0
    2.2787    1.5587    0.0000 O   0  0  0  0  0  0  0  0  0  0  0  0
    0.8999    1.3156    0.0000 C   0  0  0  0  0  0  0  0  0  0  0  0
    0.4211    0.0000    0.0000 O   0  0  0  0  0  0  0  0  0  0  0  0
    0.0000    2.3881    0.0000 C   0  0  0  0  0  0  0  0  0  0  0  0
    4.5617    0.9054    0.0000 C   0  0  0  0  0  0  0  0  0  0  0  0
    3.0701    1.1018    0.0000 C   0  0  0  0  0  0  0  0  0  0  0  0
  2  1  2  0  0  0  0
  3  2  1  0  0  0  0
  4  3  2  0  0  0  0
  5  4  1  0  0  0  0
  6  5  1  0  0  0  0
  7  6  1  0  0  0  0
  8  7  2  0  0  0  0
  9  7  1  0  0  0  0
 10  9  1  0  0  0  0
 11 10  1  0  0  0  0
 12 11  2  0  0  0  0
 13 12  1  0  0  0  0
 14 13  1  0  0  0  0
 15 14  1  0  0  0  0
 16 15  1  0  0  0  0
 17 16  1  0  0  0  0
 18 17  1  0  0  0  0
 19 18  2  0  0  0  0
 18 11  1  0  0  0  0
 17 20  1  6  0  0  0
 21 20  1  0  0  0  0
 21  3  1  0  0  0  0
 22 21  2  0  0  0  0
 23 14  1  0  0  0  0
  6 24  1  1  0  0  0
  6 25  1  6  0  0  0
 26 25  1  0  0  0  0
 27 26  2  0  0  0  0
 28 26  1  0  0  0  0
 29  5  1  0  0  0  0
 30  5  1  0  0  0  0
M  END
>  <Substance ID> (461)
461

>  <Mouse_Female_Canc> (461)
ND

>  <SAL> (461)
ND

>  <Rat_Male_Canc> (461)
3

>  <TD50_Rat> (461)
0.5

>  <TD50_Mouse> (461)
ND

>  <Rat_Female_Canc> (461)
3

>  <Canc> (461)
3

>  <MolWeight> (461)
419.47

>  <Mouse_Male_Canc> (461)
ND

>  <Mouse_Male_NTP> (461)
ND

>  <ChemName> (461)
Clivorine

>  <Rat_Male_NTP> (461)
ND

>  <Reference> (461)
CPDB

>  <Formula> (461)
C22H29NO7

>  <SMILES> (461)
CC(=O)O[C@]1(C)C(=O)OC\C2=C\CN(C)CC[C@@H](OC(=O)C(=C/C1(C)C)\C=C)C2=O

>  <Rat_Female_NTP> (461)
ND

>  <CAS> (461)
33979-15-6

>  <Mouse_Female_NTP> (461)
ND

>  <Synonyms> (461)
-

$$$$
462


 25 27  0  0  0  0  0  0  0  0999 V2000
    4.5998  -24.3621    0.0064 N   0  0  0  0  0  0  0  0  0  0  0  0
    5.4324  -22.2900    0.0030 C   0  0  0  0  0  0  0  0  0  0  0  0
    5.7683  -23.5572    0.0068 C   0  0  0  0  0  0  0  0  0  0  0  0
    8.0480  -22.9880    0.0027 C   0  0  0  0  0  0  0  0  0  0  0  0
    7.6009  -21.5534   -0.0035 C   0  0  0  0  0  0  0  0  0  0  0  0
    7.1421  -23.9693    0.0079 C   0  0  0  0  0  0  0  0  0  0  0  0
    6.3550  -21.2548   -0.0018 N   0  0  0  0  0  0  0  0  0  0  0  0
    8.5552  -20.5351   -0.0120 N   0  0  0  0  0  0  0  0  0  0  0  0
    3.6256  -23.5274    0.0026 C   0  0  0  0  0  0  0  0  0  0  0  0
    4.0786  -22.2454    0.0033 N   0  0  0  0  0  0  0  0  0  0  0  0
    3.2370  -21.1468    0.0041 C   0  0  0  0  0  0  0  0  0  0  0  0
    1.9163  -21.3738    0.0010 C   0  0  0  0  0  0  0  0  0  0  0  0
    1.3779  -22.7748   -0.0048 C   0  0  0  0  0  0  0  0  0  0  0  0
    2.2176  -23.8136   -0.0038 C   0  0  0  0  0  0  0  0  0  0  0  0
    1.7107  -25.2263   -0.0113 C   0  0  0  0  0  0  0  0  0  0  0  0
    9.0235  -23.2079    0.0030 H   0  0  0  0  0  0  0  0  0  0  0  0
    7.4059  -24.9339    0.0123 H   0  0  0  0  0  0  0  0  0  0  0  0
    8.2652  -19.5781   -0.0162 H   0  0  0  0  0  0  0  0  0  0  0  0
    9.5290  -20.7624   -0.0139 H   0  0  0  0  0  0  0  0  0  0  0  0
    3.6018  -20.2157    0.0070 H   0  0  0  0  0  0  0  0  0  0  0  0
    1.2820  -20.6007    0.0026 H   0  0  0  0  0  0  0  0  0  0  0  0
    0.3902  -22.9306   -0.0093 H   0  0  0  0  0  0  0  0  0  0  0  0
    0.7108  -25.2221   -0.0151 H   0  0  0  0  0  0  0  0  0  0  0  0
    2.0385  -25.7029    0.8044 H   0  0  0  0  0  0  0  0  0  0  0  0
    2.0447  -25.6964   -0.8283 H   0  0  0  0  0  0  0  0  0  0  0  0
  9  1  2  0  0  0  0
  1  3  1  0  0  0  0
 10  2  1  0  0  0  0
  2  3  2  0  0  0  0
  4  5  1  0  0  0  0
  2  7  1  0  0  0  0
  3  6  1  0  0  0  0
  6  4  2  0  0  0  0
  5  7  2  0  0  0  0
  5  8  1  0  0  0  0
  9 10  1  0  0  0  0
  9 14  1  0  0  0  0
 10 11  1  0  0  0  0
 11 12  2  0  0  0  0
 12 13  1  0  0  0  0
 13 14  2  0  0  0  0
 14 15  1  0  0  0  0
  4 16  1  0  0  0  0
  6 17  1  0  0  0  0
  8 18  1  0  0  0  0
  8 19  1  0  0  0  0
 11 20  1  0  0  0  0
 12 21  1  0  0  0  0
 13 22  1  0  0  0  0
 15 23  1  0  0  0  0
 15 24  1  0  0  0  0
 15 25  1  0  0  0  0
M  END
>  <Substance ID> (462)
462

>  <Mouse_Female_Canc> (462)
3

>  <SAL> (462)
3

>  <Rat_Male_Canc> (462)
3

>  <TD50_Rat> (462)
4.69

>  <TD50_Mouse> (462)
5.4

>  <Rat_Female_Canc> (462)
3

>  <Canc> (462)
3

>  <MolWeight> (462)
198.23

>  <Mouse_Male_Canc> (462)
3

>  <Mouse_Male_NTP> (462)
ND

>  <ChemName> (462)
Glu-P-1

>  <Rat_Male_NTP> (462)
ND

>  <Reference> (462)
CPDB

>  <Formula> (462)
C11H10N4

>  <SMILES> (462)
n3c1c(nc2c(cccn12)C)ccc3N

>  <Rat_Female_NTP> (462)
ND

>  <CAS> (462)
67730-11-4

>  <Mouse_Female_NTP> (462)
ND

>  <Synonyms> (462)
2-Amino-6-methyldipyrido[1,2-a:3',2'-d]imidazole.

$$$$
463


  8  8  0  0  0  0  0  0  0  0999 V2000
    3.1076  -31.4788    0.0004 N   0  0  0  0  0  0  0  0  0  0  0  0
    1.8328  -30.7253   -0.0000 C   0  0  0  0  0  0  0  0  0  0  0  0
    1.8399  -32.2442   -0.0001 C   0  0  0  0  0  0  0  0  0  0  0  0
    3.6850  -31.4760   -0.8161 H   0  0  0  0  0  0  0  0  0  0  0  0
    1.5453  -30.2247    0.8165 H   0  0  0  0  0  0  0  0  0  0  0  0
    1.5459  -30.2247   -0.8167 H   0  0  0  0  0  0  0  0  0  0  0  0
    1.5572  -32.7475    0.8164 H   0  0  0  0  0  0  0  0  0  0  0  0
    1.5577  -32.7474   -0.8169 H   0  0  0  0  0  0  0  0  0  0  0  0
  2  1  1  0  0  0  0
  3  2  1  0  0  0  0
  1  3  1  0  0  0  0
  1  4  1  0  0  0  0
  2  5  1  0  0  0  0
  2  6  1  0  0  0  0
  3  7  1  0  0  0  0
  3  8  1  0  0  0  0
M  END
>  <Substance ID> (463)
463

>  <Mouse_Female_Canc> (463)
3

>  <SAL> (463)
3

>  <Rat_Male_Canc> (463)
ND

>  <TD50_Rat> (463)
ND

>  <TD50_Mouse> (463)
0.377

>  <Rat_Female_Canc> (463)
ND

>  <Canc> (463)
3

>  <MolWeight> (463)
43.07

>  <Mouse_Male_Canc> (463)
3

>  <Mouse_Male_NTP> (463)
ND

>  <ChemName> (463)
Ethyleneimine 

>  <Rat_Male_NTP> (463)
ND

>  <Reference> (463)
CPDB

>  <Formula> (463)
C2H5N


>  <SMILES> (463)
C1CN1

>  <Rat_Female_NTP> (463)
ND

>  <CAS> (463)
151-56-4

>  <Mouse_Female_NTP> (463)
ND

>  <Synonyms> (463)
Azirane; Aziridine; Dimethyleneimine; Ethylenimine; ethylimine.

$$$$
464


  6  5  0  0  0  0  0  0  0  0999 V2000
    2.3806  -38.5001    0.0005 N   0  0  0  0  0  0  0  0  0  0  0  0
    3.7806  -38.5008   -0.0002 N   0  0  0  0  0  0  0  0  0  0  0  0
    2.0473  -37.5573    0.0007 H   0  0  0  0  0  0  0  0  0  0  0  0
    2.0470  -38.9712    0.8171 H   0  0  0  0  0  0  0  0  0  0  0  0
    4.1139  -39.4436   -0.0004 H   0  0  0  0  0  0  0  0  0  0  0  0
    4.1151  -38.0297    0.8160 H   0  0  0  0  0  0  0  0  0  0  0  0
  1  2  1  0  0  0  0
  1  3  1  0  0  0  0
  1  4  1  0  0  0  0
  2  5  1  0  0  0  0
  2  6  1  0  0  0  0
M  END
>  <Substance ID> (464)
464

>  <Mouse_Female_Canc> (464)
3

>  <SAL> (464)
3

>  <Rat_Male_Canc> (464)
3

>  <TD50_Rat> (464)
0.309

>  <TD50_Mouse> (464)
2.93

>  <Rat_Female_Canc> (464)
3

>  <Canc> (464)
3

>  <MolWeight> (464)
32.05

>  <Mouse_Male_Canc> (464)
3

>  <Mouse_Male_NTP> (464)
ND

>  <ChemName> (464)
Hydrazine

>  <Rat_Male_NTP> (464)
ND

>  <Reference> (464)
CPDB

>  <Formula> (464)
H4N2 

>  <SMILES> (464)
NN

>  <Rat_Female_NTP> (464)
ND

>  <CAS> (464)
302-01-2

>  <Mouse_Female_NTP> (464)
ND

>  <Synonyms> (464)
Diamide; Diamine; Hydrazine base; hydrazine sulfate.

$$$$
465


 32 34  0  0  0  0  0  0  0  0999 V2000
    5.4090  -47.5779    0.0226 C   0  0  2  0  0  0  0  0  0  0  0  0
    6.0046  -46.4021    0.7533 N   0  0  0  0  0  0  0  0  0  0  0  0
    4.8793  -47.1743    1.3663 C   0  0  0  0  0  0  0  0  0  0  0  0
    7.3306  -43.4710   -0.0056 C   0  0  1  0  0  0  0  0  0  0  0  0
    6.2073  -44.2040   -0.6701 N   0  0  0  0  0  0  0  0  0  0  0  0
    7.5732  -44.8046   -0.6269 C   0  0  0  0  0  0  0  0  0  0  0  0
    3.8297  -45.0434    0.0515 N   0  0  0  0  0  0  0  0  0  0  0  0
    3.4808  -43.6283   -0.3425 C   0  0  1  0  0  0  0  0  0  0  0  0
    3.6630  -44.6865   -1.3905 C   0  0  0  0  0  0  0  0  0  0  0  0
    5.3542  -45.0230    0.3510 P   0  0  0  0  0  0  0  0  0  0  0  0
    5.6044  -44.3729    1.5173 O   0  0  0  0  0  0  0  0  0  0  0  0
    7.8306  -42.4326   -1.0228 C   0  0  0  0  0  0  0  0  0  0  0  0
    1.9655  -43.4101   -0.2552 C   0  0  0  0  0  0  0  0  0  0  0  0
    6.3942  -48.7429    0.2514 C   0  0  0  0  0  0  0  0  0  0  0  0
    5.0085  -47.7509   -0.8772 H   0  0  0  0  0  0  0  0  0  0  0  0
    5.0481  -47.7538    2.1635 H   0  0  0  0  0  0  0  0  0  0  0  0
    3.9724  -46.7597    1.4409 H   0  0  0  0  0  0  0  0  0  0  0  0
    7.4849  -43.0541    0.8901 H   0  0  0  0  0  0  0  0  0  0  0  0
    7.7506  -45.6003   -0.0478 H   0  0  0  0  0  0  0  0  0  0  0  0
    8.1149  -44.8740   -1.4646 H   0  0  0  0  0  0  0  0  0  0  0  0
    3.8607  -42.7317   -0.1150 H   0  0  0  0  0  0  0  0  0  0  0  0
    2.8718  -45.0252   -1.8997 H   0  0  0  0  0  0  0  0  0  0  0  0
    4.4608  -44.6594   -1.9928 H   0  0  0  0  0  0  0  0  0  0  0  0
    8.5864  -41.9127   -0.6249 H   0  0  0  0  0  0  0  0  0  0  0  0
    7.0848  -41.8091   -1.2573 H   0  0  0  0  0  0  0  0  0  0  0  0
    8.1463  -42.8997   -1.8488 H   0  0  0  0  0  0  0  0  0  0  0  0
    1.7479  -42.4702   -0.5183 H   0  0  0  0  0  0  0  0  0  0  0  0
    1.6583  -43.5729    0.6824 H   0  0  0  0  0  0  0  0  0  0  0  0
    1.5008  -44.0447   -0.8728 H   0  0  0  0  0  0  0  0  0  0  0  0
    6.0557  -49.5621   -0.2115 H   0  0  0  0  0  0  0  0  0  0  0  0
    6.4752  -48.9239    1.2315 H   0  0  0  0  0  0  0  0  0  0  0  0
    7.2911  -48.4989   -0.1174 H   0  0  0  0  0  0  0  0  0  0  0  0
  2  1  1  0  0  0  0
  3  2  1  0  0  0  0
  1  3  1  0  0  0  0
  5  4  1  0  0  0  0
  6  5  1  0  0  0  0
  4  6  1  0  0  0  0
  8  7  1  0  0  0  0
  9  8  1  0  0  0  0
  7  9  1  0  0  0  0
  7 10  1  0  0  0  0
 10  5  1  0  0  0  0
 10  2  1  0  0  0  0
 10 11  2  0  0  0  0
  4 12  1  0  0  0  0
  8 13  1  0  0  0  0
  1 14  1  0  0  0  0
  1 15  1  0  0  0  0
  3 16  1  0  0  0  0
  3 17  1  0  0  0  0
  4 18  1  0  0  0  0
  6 19  1  0  0  0  0
  6 20  1  0  0  0  0
  8 21  1  0  0  0  0
  9 22  1  0  0  0  0
  9 23  1  0  0  0  0
 12 24  1  0  0  0  0
 12 25  1  0  0  0  0
 12 26  1  0  0  0  0
 13 27  1  0  0  0  0
 13 28  1  0  0  0  0
 13 29  1  0  0  0  0
 14 30  1  0  0  0  0
 14 31  1  0  0  0  0
 14 32  1  0  0  0  0
M  END
>  <Substance ID> (465)
465

>  <Mouse_Female_Canc> (465)
ND

>  <SAL> (465)
3

>  <Rat_Male_Canc> (465)
3

>  <TD50_Rat> (465)
4.46

>  <TD50_Mouse> (465)
ND

>  <Rat_Female_Canc> (465)
ND

>  <Canc> (465)
3

>  <MolWeight> (465)
215.23

>  <Mouse_Male_Canc> (465)
ND

>  <Mouse_Male_NTP> (465)
ND

>  <ChemName> (465)
Metepa

>  <Rat_Male_NTP> (465)
ND

>  <Reference> (465)
CPDB

>  <Formula> (465)
C9H18N3OP

>  <SMILES> (465)
O=P(N1C(C1)C)(N1C(C1)C)N1C(C1)C

>  <Rat_Female_NTP> (465)
ND

>  <CAS> (465)
57-39-6

>  <Mouse_Female_NTP> (465)
ND

>  <Synonyms> (465)
Tris[1-(2-Methyl)aziridinyl]ph Osphine Oxide, 92%- Carc.; Tris(2-Methyl-1-aziridinyl)phosphine Oxide; Tris[2-methylaziridinyl]phosphine oxide; Tris (1-methylethylene) phosphoric triamide.

$$$$
466


 12 11  0  0  0  0  0  0  0  0999 V2000
    2.4803  -53.5640    0.0002 N   0  0  0  0  0  0  0  0  0  0  0  0
    1.1878  -54.2634   -0.0000 C   0  0  0  0  0  0  0  0  0  0  0  0
    3.5189  -54.5025   -0.0002 N   0  0  0  0  0  0  0  0  0  0  0  0
    4.8114  -53.8031    0.0000 C   0  0  0  0  0  0  0  0  0  0  0  0
    2.5491  -52.9907   -0.8163 H   0  0  0  0  0  0  0  0  0  0  0  0
    0.4456  -53.5933    0.0002 H   0  0  0  0  0  0  0  0  0  0  0  0
    1.1185  -54.8371    0.8162 H   0  0  0  0  0  0  0  0  0  0  0  0
    1.1185  -54.8365   -0.8166 H   0  0  0  0  0  0  0  0  0  0  0  0
    3.4501  -55.0758    0.8163 H   0  0  0  0  0  0  0  0  0  0  0  0
    5.5536  -54.4733   -0.0002 H   0  0  0  0  0  0  0  0  0  0  0  0
    4.8807  -53.2301    0.8166 H   0  0  0  0  0  0  0  0  0  0  0  0
    4.8807  -53.2295   -0.8162 H   0  0  0  0  0  0  0  0  0  0  0  0
  1  2  1  0  0  0  0
  1  3  1  0  0  0  0
  3  4  1  0  0  0  0
  1  5  1  0  0  0  0
  2  6  1  0  0  0  0
  2  7  1  0  0  0  0
  2  8  1  0  0  0  0
  3  9  1  0  0  0  0
  4 10  1  0  0  0  0
  4 11  1  0  0  0  0
  4 12  1  0  0  0  0
M  END
>  <Substance ID> (466)
466

>  <Mouse_Female_Canc> (466)
3

>  <SAL> (466)
3

>  <Rat_Male_Canc> (466)
ND

>  <TD50_Rat> (466)
ND

>  <TD50_Mouse> (466)
0.114

>  <Rat_Female_Canc> (466)
ND

>  <Canc> (466)
3

>  <MolWeight> (466)
60.10

>  <Mouse_Male_Canc> (466)
3

>  <Mouse_Male_NTP> (466)
ND

>  <ChemName> (466)
1,2-Dimethylhydrazine Dihydrochloride

>  <Rat_Male_NTP> (466)
ND

>  <Reference> (466)
CPDB

>  <Formula> (466)
C2H8N2

>  <SMILES> (466)
N(NC)C

>  <Rat_Female_NTP> (466)
ND

>  <CAS> (466)
306-37-6

>  <Mouse_Female_NTP> (466)
ND

>  <Synonyms> (466)
1,1'-Dimethylhydrazine Dihydrochloride; 1,2-dimethylhydrazinium dichloride; dimethylhydrazine dihydrochloride; dimethylhydrazinium dichloride; DMH; N,N'-dimethylhydrazine dihydrochloride; N,N'-Dimethylhydrazinium dichloride; sym-Dimethylhydrazine dihydrochloride.

$$$$
467


  9  8  0  0  0  0  0  0  0  0999 V2000
    2.4339  -64.0316    0.0004 C   0  0  0  0  0  0  0  0  0  0
    3.7075  -63.1658    0.0002 C   0  0  0  0  0  0  0  0  0  0
    4.8601  -64.0122    0.0004 O   0  0  0  0  0  0  0  0  0  0
    1.6279  -63.4398    0.0003 H   0  0  0  0  0  0  0  0  0  0
    2.4229  -64.6089    0.8169 H   0  0  0  0  0  0  0  0  0  0
    2.4228  -64.6093   -0.8159 H   0  0  0  0  0  0  0  0  0  0
    3.7179  -62.5890   -0.8166 H   0  0  0  0  0  0  0  0  0  0
    3.7180  -62.5886    0.8167 H   0  0  0  0  0  0  0  0  0  0
    5.6871  -63.4500    0.0002 H   0  0  0  0  0  0  0  0  0  0
  1  2  1  0  0  0
  2  3  1  0  0  0
  1  4  1  0  0  0
  1  5  1  0  0  0
  1  6  1  0  0  0
  2  7  1  0  0  0
  2  8  1  0  0  0
  3  9  1  0  0  0
M  END
>  <Substance ID> (467)
467

>  <Mouse_Female_Canc> (467)
1

>  <SAL> (467)
1

>  <Rat_Male_Canc> (467)
3

>  <TD50_Rat> (467)
9110

>  <TD50_Mouse> (467)
NP

>  <Rat_Female_Canc> (467)
1

>  <Canc> (467)
3

>  <MolWeight> (467)
46.07

>  <Mouse_Male_Canc> (467)
1

>  <Mouse_Male_NTP> (467)
ND

>  <ChemName> (467)
Ethyl alcohol

>  <Rat_Male_NTP> (467)
ND

>  <Reference> (467)
CPDB

>  <Formula> (467)
C2H6O

>  <SMILES> (467)
CCO

>  <Rat_Female_NTP> (467)
ND

>  <CAS> (467)
64-17-5

>  <Mouse_Female_NTP> (467)
ND

>  <Synonyms> (467)
alcohol; alcohol dehydrated; algrain; Anhydrol; cologne spirit; cologne spirits (alcohol); Denatured alcohol; Ethanol; ethanol 200 proof; Ethanol absolute; ethyl hydrate; ethyl hydroxide; fermentation alcohol; grain alcohol; jaysol; jaysol s; methylcarbinol; molasses alcohol; potato alcohol; sd alcohol 23-hydrogen; spirit; spirits of wine; Synasol; tecsol.

$$$$
468


 36 40  0  0  0  0  0  0  0  0999 V2000
    7.1493  -72.1840   -0.0004 C   0  0  0  0  0  0  0  0  0  0  0  0
    8.2882  -71.4896   -0.0005 C   0  0  0  0  0  0  0  0  0  0  0  0
    7.0883  -69.3890   -0.0008 C   0  0  0  0  0  0  0  0  0  0  0  0
    8.2553  -70.0327   -0.0009 C   0  0  0  0  0  0  0  0  0  0  0  0
   10.7375  -71.5210    0.0001 C   0  0  0  0  0  0  0  0  0  0  0  0
    9.5812  -72.1921   -0.0013 C   0  0  0  0  0  0  0  0  0  0  0  0
    3.3728  -70.0670   -0.0004 C   0  0  0  0  0  0  0  0  0  0  0  0
    5.8592  -71.4840   -0.0002 C   0  0  0  0  0  0  0  0  0  0  0  0
    5.8282  -70.1482    0.0000 C   0  0  0  0  0  0  0  0  0  0  0  0
    4.5400  -69.4203    0.0006 C   0  0  0  0  0  0  0  0  0  0  0  0
    4.6047  -72.2429    0.0003 C   0  0  0  0  0  0  0  0  0  0  0  0
    3.3483  -71.5205    0.0002 C   0  0  0  0  0  0  0  0  0  0  0  0
    2.1843  -73.6428   -0.0002 C   0  0  0  0  0  0  0  0  0  0  0  0
    3.3378  -74.3092    0.0000 C   0  0  0  0  0  0  0  0  0  0  0  0
    2.1905  -72.1789   -0.0003 C   0  0  0  0  0  0  0  0  0  0  0  0
    4.6089  -73.5751    0.0002 C   0  0  0  0  0  0  0  0  0  0  0  0
    9.5191  -69.2996   -0.0002 C   0  0  0  0  0  0  0  0  0  0  0  0
   10.7685  -70.0515    0.0001 C   0  0  0  0  0  0  0  0  0  0  0  0
   11.9646  -67.9451   -0.0001 C   0  0  0  0  0  0  0  0  0  0  0  0
   10.8234  -67.2578    0.0002 C   0  0  0  0  0  0  0  0  0  0  0  0
   11.9350  -69.4085   -0.0004 C   0  0  0  0  0  0  0  0  0  0  0  0
    9.5397  -67.9677   -0.0000 C   0  0  0  0  0  0  0  0  0  0  0  0
    7.1745  -73.1837   -0.0004 H   0  0  0  0  0  0  0  0  0  0  0  0
    7.0692  -68.3892   -0.0013 H   0  0  0  0  0  0  0  0  0  0  0  0
   11.5988  -72.0292    0.0011 H   0  0  0  0  0  0  0  0  0  0  0  0
    9.5953  -73.1920   -0.0030 H   0  0  0  0  0  0  0  0  0  0  0  0
    2.5155  -69.5521   -0.0017 H   0  0  0  0  0  0  0  0  0  0  0  0
    4.5441  -68.4203    0.0019 H   0  0  0  0  0  0  0  0  0  0  0  0
    1.3171  -74.1409   -0.0003 H   0  0  0  0  0  0  0  0  0  0  0  0
    3.3378  -75.3092    0.0001 H   0  0  0  0  0  0  0  0  0  0  0  0
    1.3271  -71.6743   -0.0007 H   0  0  0  0  0  0  0  0  0  0  0  0
    5.4757  -74.0737    0.0001 H   0  0  0  0  0  0  0  0  0  0  0  0
   12.8401  -67.4619   -0.0001 H   0  0  0  0  0  0  0  0  0  0  0  0
   10.8419  -66.2580    0.0005 H   0  0  0  0  0  0  0  0  0  0  0  0
   12.7909  -69.9258   -0.0011 H   0  0  0  0  0  0  0  0  0  0  0  0
    8.6822  -67.4530    0.0000 H   0  0  0  0  0  0  0  0  0  0  0  0
  6  2  1  0  0  0  0
  2  4  1  0  0  0  0
  2  1  2  0  0  0  0
  1  8  1  0  0  0  0
  9  3  1  0  0  0  0
  3  4  2  0  0  0  0
  4 17  1  0  0  0  0
 18  5  1  0  0  0  0
  5  6  2  0  0  0  0
  7 10  2  0  0  0  0
  7 12  1  0  0  0  0
 11  8  1  0  0  0  0
  8  9  2  0  0  0  0
  9 10  1  0  0  0  0
 11 12  1  0  0  0  0
 13 14  2  0  0  0  0
 11 16  2  0  0  0  0
 12 15  2  0  0  0  0
 15 13  1  0  0  0  0
 14 16  1  0  0  0  0
 17 18  1  0  0  0  0
 19 20  2  0  0  0  0
 17 22  2  0  0  0  0
 18 21  2  0  0  0  0
 21 19  1  0  0  0  0
 20 22  1  0  0  0  0
  1 23  1  0  0  0  0
  3 24  1  0  0  0  0
  5 25  1  0  0  0  0
  6 26  1  0  0  0  0
  7 27  1  0  0  0  0
 10 28  1  0  0  0  0
 13 29  1  0  0  0  0
 14 30  1  0  0  0  0
 15 31  1  0  0  0  0
 16 32  1  0  0  0  0
 19 33  1  0  0  0  0
 20 34  1  0  0  0  0
 21 35  1  0  0  0  0
 22 36  1  0  0  0  0
M  END
>  <Substance ID> (468)
468

>  <Mouse_Female_Canc> (468)
ND

>  <SAL> (468)
3

>  <Rat_Male_Canc> (468)
ND

>  <TD50_Rat> (468)
ND

>  <TD50_Mouse> (468)
5.88

>  <Rat_Female_Canc> (468)
ND

>  <Canc> (468)
3

>  <MolWeight> (468)
278.35

>  <Mouse_Male_Canc> (468)
3

>  <Mouse_Male_NTP> (468)
ND

>  <ChemName> (468)
Dibenz[a,h]anthracene

>  <Rat_Male_NTP> (468)
ND

>  <Reference> (468)
CPDB

>  <Formula> (468)
C22H14

>  <SMILES> (468)
c43cc2ccc1ccccc1c2cc3ccc5c4cccc5

>  <Rat_Female_NTP> (468)
ND

>  <CAS> (468)
53-70-3

>  <Mouse_Female_NTP> (468)
ND

>  <Synonyms> (468)
1,2:5,6-benzanthracene; 1,2:5,6-dibenz[a]anthracene; 1,2,5,6-Dibenzanthracene; 1,2:5,6-dibenzoanthracene; 1,2,5,6-dba; Benz[a,h]anthracene; dibenzo[a,h]anthracene; DBA; DB(A,H)A.

$$$$
469


 32 31  0  0  0  0  0  0  0  0999 V2000
    4.6861  -85.5832   -0.2046 C   0  0  0  0  0  0  0  0  0  0  0  0
    3.8546  -84.3457    0.6640 Cl  0  0  0  0  0  0  0  0  0  0  0  0
    5.9938  -85.2492   -0.8563 C   0  0  0  0  0  0  0  0  0  0  0  0
    7.2439  -86.5421   -0.6588 S   0  0  0  0  0  0  0  0  0  0  0  0
    8.6363  -85.6664    0.0118 C   0  0  0  0  0  0  0  0  0  0  0  0
    8.4057  -84.5418    0.4779 O   0  0  0  0  0  0  0  0  0  0  0  0
    9.9725  -86.2107    0.0157 N   0  0  0  0  0  0  0  0  0  0  0  0
   11.1401  -85.2512    0.3975 C   0  0  0  0  0  0  0  0  0  0  0  0
   10.0537  -87.6993   -0.2936 C   0  0  0  0  0  0  0  0  0  0  0  0
   10.9875  -83.7999   -0.1346 C   0  0  0  0  0  0  0  0  0  0  0  0
   12.6314  -85.6655    0.3023 C   0  0  0  0  0  0  0  0  0  0  0  0
    9.4202  -88.5303    0.8447 C   0  0  0  0  0  0  0  0  0  0  0  0
   11.3669  -88.3751   -0.7754 C   0  0  0  0  0  0  0  0  0  0  0  0
    4.1553  -86.8004   -0.2800 C   0  0  0  0  0  0  0  0  0  0  0  0
    2.6295  -87.0956    0.4859 Cl  0  0  0  0  0  0  0  0  0  0  0  0
    5.8344  -85.1087   -1.8335 H   0  0  0  0  0  0  0  0  0  0  0  0
    6.3439  -84.4049   -0.4505 H   0  0  0  0  0  0  0  0  0  0  0  0
   10.9671  -85.3295    1.3793 H   0  0  0  0  0  0  0  0  0  0  0  0
    9.5351  -87.7058   -1.1486 H   0  0  0  0  0  0  0  0  0  0  0  0
   11.7744  -83.2542    0.1536 H   0  0  0  0  0  0  0  0  0  0  0  0
   10.1498  -83.3959    0.2332 H   0  0  0  0  0  0  0  0  0  0  0  0
   10.9398  -83.8137   -1.1333 H   0  0  0  0  0  0  0  0  0  0  0  0
   13.2089  -84.9029    0.5935 H   0  0  0  0  0  0  0  0  0  0  0  0
   12.8511  -85.9074   -0.6428 H   0  0  0  0  0  0  0  0  0  0  0  0
   12.7974  -86.4538    0.8949 H   0  0  0  0  0  0  0  0  0  0  0  0
    9.4836  -89.5033    0.6228 H   0  0  0  0  0  0  0  0  0  0  0  0
    8.4591  -88.2747    0.9496 H   0  0  0  0  0  0  0  0  0  0  0  0
    9.9075  -88.3515    1.6995 H   0  0  0  0  0  0  0  0  0  0  0  0
   11.2060  -89.3512   -0.9210 H   0  0  0  0  0  0  0  0  0  0  0  0
   12.0779  -88.2546   -0.0826 H   0  0  0  0  0  0  0  0  0  0  0  0
   11.6632  -87.9550   -1.6332 H   0  0  0  0  0  0  0  0  0  0  0  0
    4.6285  -87.5323   -0.7701 H   0  0  0  0  0  0  0  0  0  0  0  0
  1  2  1  0  0  0  0
  1  3  1  0  0  0  0
  3  4  1  0  0  0  0
  4  5  1  0  0  0  0
  5  6  2  0  0  0  0
  5  7  1  0  0  0  0
  7  8  1  0  0  0  0
  7  9  1  0  0  0  0
  8 10  1  0  0  0  0
  8 11  1  0  0  0  0
  9 12  1  0  0  0  0
  9 13  1  0  0  0  0
  1 14  2  0  0  0  0
 14 15  1  0  0  0  0
  3 16  1  0  0  0  0
  3 17  1  0  0  0  0
  8 18  1  0  0  0  0
  9 19  1  0  0  0  0
 10 20  1  0  0  0  0
 10 21  1  0  0  0  0
 10 22  1  0  0  0  0
 11 23  1  0  0  0  0
 11 24  1  0  0  0  0
 11 25  1  0  0  0  0
 12 26  1  0  0  0  0
 12 27  1  0  0  0  0
 12 28  1  0  0  0  0
 13 29  1  0  0  0  0
 13 30  1  0  0  0  0
 13 31  1  0  0  0  0
 14 32  1  0  0  0  0
M  END
>  <Substance ID> (469)
469

>  <Mouse_Female_Canc> (469)
1

>  <SAL> (469)
3

>  <Rat_Male_Canc> (469)
ND

>  <TD50_Rat> (469)
ND

>  <TD50_Mouse> (469)
26.7

>  <Rat_Female_Canc> (469)
ND

>  <Canc> (469)
3

>  <MolWeight> (469)
270.22

>  <Mouse_Male_Canc> (469)
3

>  <Mouse_Male_NTP> (469)
ND

>  <ChemName> (469)
Diallate

>  <Rat_Male_NTP> (469)
ND

>  <Reference> (469)
CPDB

>  <Formula> (469)
C10H17Cl2NOS

>  <SMILES> (469)
ClC(=[C@H]Cl)CSC(=O)N(C(C)C)C(C)C

>  <Rat_Female_NTP> (469)
ND

>  <CAS> (469)
2303-16-4

>  <Mouse_Female_NTP> (469)
ND

>  <Synonyms> (469)
2,3-Dichloro-2-propene-1-thiol, diisopropylcarbamate; 2,3-Dichloro-2-Propene-1-Thiol, S-2,3-Diisopropyl carbamate; 2,3-Dichloroallyl Diisopropylthiocarbamate; 2,3-Dichloroallyl N,N-diisopropylthiolcarbamate; 2,3-DCDT; Avadex; Carbamothioic Acid, Bis-(1-Methyl-ethyl)-S-(2,3-Dichloro-2-Propenyl) Ester; DATC; DCDT; Propene-1-thiol, 2,3-dichloro-, diisopropylcarbamate; Pyradex; S-(2,3-dichloro-2-propenyl) bis(1-methylethyl)carbamothioate; S-(2,3-Dichloroallyl) diisopropyl-thiocarbamate.

$$$$
470


 36 38  0  0  0  0  0  0  0  0999 V2000
   43.4668   -5.1809    0.0037 C   0  0  0  0  0  0  0  0  0  0  0  0
   44.5424   -5.8826   -0.0074 N   0  0  0  0  0  0  0  0  0  0  0  0
   44.7304   -3.1114    0.0205 C   0  0  0  0  0  0  0  0  0  0  0  0
   43.5521   -3.7184    0.0173 C   0  0  0  0  0  0  0  0  0  0  0  0
   37.4670   -4.5648   -0.0417 C   0  0  0  0  0  0  0  0  0  0  0  0
   37.5488   -5.8837   -0.0014 C   0  0  0  0  0  0  0  0  0  0  0  0
   38.9181   -6.3711    0.0199 O   0  0  0  0  0  0  0  0  0  0  0  0
   39.6208   -5.1100   -0.0081 C   0  0  0  0  0  0  0  0  0  0  0  0
   38.7956   -4.0696   -0.0428 C   0  0  0  0  0  0  0  0  0  0  0  0
   41.1022   -4.8806   -0.0050 C   0  0  0  0  0  0  0  0  0  0  0  0
   42.0939   -5.7807    0.0025 C   0  0  0  0  0  0  0  0  0  0  0  0
   45.9326   -3.9095    0.0092 C   0  0  0  0  0  0  0  0  0  0  0  0
   45.8433   -5.2416   -0.0052 C   0  0  0  0  0  0  0  0  0  0  0  0
   47.0349   -6.0190   -0.0186 N   0  0  0  0  0  0  0  0  0  0  0  0
   48.3172   -5.3971   -0.0157 C   0  0  0  0  0  0  0  0  0  0  0  0
   48.4353   -4.0690   -0.0002 C   0  0  0  0  0  0  0  0  0  0  0  0
   47.2371   -3.2553    0.0129 C   0  0  0  0  0  0  0  0  0  0  0  0
   46.9525   -7.4486   -0.0360 C   0  0  0  0  0  0  0  0  0  0  0  0
   47.3145   -2.0199    0.0279 O   0  0  0  0  0  0  0  0  0  0  0  0
   36.3915   -6.6835    0.0145 N   0  3  0  0  0  0  0  0  0  0  0  0
   35.1942   -6.0986   -0.0149 O   0  5  0  0  0  0  0  0  0  0  0  0
   36.4689   -7.8542    0.0510 O   0  0  0  0  0  0  0  0  0  0  0  0
   49.7665   -3.4294    0.0050 C   0  0  0  0  0  0  0  0  0  0  0  0
   50.9191   -4.2102   -0.0055 O   0  0  0  0  0  0  0  0  0  0  0  0
   49.8653   -2.1964    0.0206 O   0  0  0  0  0  0  0  0  0  0  0  0
   44.7856   -2.1130    0.0305 H   0  0  0  0  0  0  0  0  0  0  0  0
   42.7138   -3.1732    0.0242 H   0  0  0  0  0  0  0  0  0  0  0  0
   36.6285   -4.0205   -0.0666 H   0  0  0  0  0  0  0  0  0  0  0  0
   39.0641   -3.1066   -0.0658 H   0  0  0  0  0  0  0  0  0  0  0  0
   41.3897   -3.9229   -0.0093 H   0  0  0  0  0  0  0  0  0  0  0  0
   41.9320   -6.7675    0.0070 H   0  0  0  0  0  0  0  0  0  0  0  0
   49.1403   -5.9649   -0.0255 H   0  0  0  0  0  0  0  0  0  0  0  0
   47.8743   -7.8360   -0.0437 H   0  0  0  0  0  0  0  0  0  0  0  0
   46.4602   -7.7446   -0.8546 H   0  0  0  0  0  0  0  0  0  0  0  0
   46.4653   -7.7648    0.7781 H   0  0  0  0  0  0  0  0  0  0  0  0
   51.7241   -3.6171   -0.0000 H   0  0  0  0  0  0  0  0  0  0  0  0
  1  2  2  0  0  0  0
 12  3  1  0  0  0  0
  1  4  1  0  0  0  0
  2 13  1  0  0  0  0
  3  4  2  0  0  0  0
  5  6  2  0  0  0  0
  6  7  1  0  0  0  0
  7  8  1  0  0  0  0
  8  9  2  0  0  0  0
  5  9  1  0  0  0  0
  8 10  1  0  0  0  0
 10 11  2  0  0  0  0
 11  1  1  0  0  0  0
 12 13  2  0  0  0  0
 12 17  1  0  0  0  0
 13 14  1  0  0  0  0
 14 15  1  0  0  0  0
 15 16  2  0  0  0  0
 16 17  1  0  0  0  0
 14 18  1  0  0  0  0
 17 19  2  0  0  0  0
  6 20  1  0  0  0  0
 20 21  1  0  0  0  0
 20 22  2  0  0  0  0
 16 23  1  0  0  0  0
 23 24  1  0  0  0  0
 23 25  2  0  0  0  0
  3 26  1  0  0  0  0
  4 27  1  0  0  0  0
  5 28  1  0  0  0  0
  9 29  1  0  0  0  0
 10 30  1  0  0  0  0
 11 31  1  0  0  0  0
 15 32  1  0  0  0  0
 18 33  1  0  0  0  0
 18 34  1  0  0  0  0
 18 35  1  0  0  0  0
 24 36  1  0  0  0  0
M  END
>  <Substance ID> (470)
470

>  <Mouse_Female_Canc> (470)
3

>  <SAL> (470)
ND

>  <Rat_Male_Canc> (470)
ND

>  <TD50_Rat> (470)
ND

>  <TD50_Mouse> (470)
8.03

>  <Rat_Female_Canc> (470)
ND

>  <Canc> (470)
3

>  <MolWeight> (470)
341.28

>  <Mouse_Male_Canc> (470)
3

>  <Mouse_Male_NTP> (470)
ND

>  <ChemName> (470)
1-Methyl-1,4-dihydro-7-[2-(5-nitrofuryl)vinyl]-4-oxo-1,8-naphthyridine-3-carboxylate, Potassium salt

>  <Rat_Male_NTP> (470)
ND

>  <Reference> (470)
CPDB

>  <Formula> (470)
C16H11N3O6

>  <SMILES> (470)
C1(=CC=C2C(=N1)N(C=C(C2=O)C(O)=O)C)/C=C/C3=CC=C(O3)[N+]([O-])=O

>  <Rat_Female_NTP> (470)
ND

>  <CAS> (470)
Unknown

>  <Mouse_Female_NTP> (470)
ND

>  <Synonyms> (470)
-

$$$$
471


 23 23  0  0  0  0  0  0  0  0999 V2000
   38.7267  -20.2853   -0.0001 C   0  0  0  0  0  0  0  0  0  0  0  0
   38.9078  -21.6045   -0.0002 C   0  0  0  0  0  0  0  0  0  0  0  0
   41.3055  -21.3421   -0.0035 C   0  0  0  0  0  0  0  0  0  0  0  0
   41.1192  -19.8823   -0.0003 C   0  0  0  0  0  0  0  0  0  0  0  0
   40.2563  -22.1575   -0.0023 C   0  0  0  0  0  0  0  0  0  0  0  0
   39.8794  -19.3759    0.0005 C   0  0  0  0  0  0  0  0  0  0  0  0
   42.2450  -19.0461    0.0015 O   0  0  0  0  0  0  0  0  0  0  0  0
   43.4411  -19.8325    0.0002 C   0  0  0  0  0  0  0  0  0  0  0  0
   44.6679  -18.9138    0.0002 C   0  0  0  0  0  0  0  0  0  0  0  0
   39.6362  -17.9194    0.0015 C   0  0  0  0  0  0  0  0  0  0  0  0
   40.7262  -16.9909    0.0017 N   0  0  0  0  0  0  0  0  0  0  0  0
   38.4735  -17.4946    0.0014 O   0  0  0  0  0  0  0  0  0  0  0  0
   37.7992  -19.9115   -0.0004 H   0  0  0  0  0  0  0  0  0  0  0  0
   38.1172  -22.2169    0.0012 H   0  0  0  0  0  0  0  0  0  0  0  0
   42.2298  -21.7238   -0.0065 H   0  0  0  0  0  0  0  0  0  0  0  0
   40.3916  -23.1483   -0.0029 H   0  0  0  0  0  0  0  0  0  0  0  0
   43.4592  -20.4100    0.8165 H   0  0  0  0  0  0  0  0  0  0  0  0
   43.4582  -20.4088   -0.8168 H   0  0  0  0  0  0  0  0  0  0  0  0
   45.5001  -19.4683   -0.0007 H   0  0  0  0  0  0  0  0  0  0  0  0
   44.6531  -18.3371    0.8170 H   0  0  0  0  0  0  0  0  0  0  0  0
   44.6521  -18.3359   -0.8158 H   0  0  0  0  0  0  0  0  0  0  0  0
   40.5452  -16.0074    0.0024 H   0  0  0  0  0  0  0  0  0  0  0  0
   41.6684  -17.3259    0.0011 H   0  0  0  0  0  0  0  0  0  0  0  0
  1  2  2  0  0  0  0
  3  4  1  0  0  0  0
  1  6  1  0  0  0  0
  2  5  1  0  0  0  0
  5  3  2  0  0  0  0
  4  6  2  0  0  0  0
  4  7  1  0  0  0  0
  7  8  1  0  0  0  0
  8  9  1  0  0  0  0
  6 10  1  0  0  0  0
 10 11  1  0  0  0  0
 10 12  2  0  0  0  0
  1 13  1  0  0  0  0
  2 14  1  0  0  0  0
  3 15  1  0  0  0  0
  5 16  1  0  0  0  0
  8 17  1  0  0  0  0
  8 18  1  0  0  0  0
  9 19  1  0  0  0  0
  9 20  1  0  0  0  0
  9 21  1  0  0  0  0
 11 22  1  0  0  0  0
 11 23  1  0  0  0  0
M  END
>  <Substance ID> (471)
471

>  <Mouse_Female_Canc> (471)
1

>  <SAL> (471)
ND

>  <Rat_Male_Canc> (471)
ND

>  <TD50_Rat> (471)
ND

>  <TD50_Mouse> (471)
513

>  <Rat_Female_Canc> (471)
ND

>  <Canc> (471)
3

>  <MolWeight> (471)
165.19

>  <Mouse_Male_Canc> (471)
3

>  <Mouse_Male_NTP> (471)
ND

>  <ChemName> (471)
o-Ethoxybenzamide

>  <Rat_Male_NTP> (471)
ND

>  <Reference> (471)
CPDB

>  <Formula> (471)
C9H11NO2

>  <SMILES> (471)
NC(=O)C1=C(C=CC=C1)OCC

>  <Rat_Female_NTP> (471)
ND

>  <CAS> (471)
938-73-8

>  <Mouse_Female_NTP> (471)
ND

>  <Synonyms> (471)
Anovigam; etamide; ethbenzamide; Ethenzamide; ethosalicyl; etocil; etosalicil; etosalicyl; Eusal; H.P. 209; katagrippe; lindatox; lucamide; pirosolvina; protopyrin; trancalgyl.

$$$$
472


 12 12  0  0  0  0  0  0  0  0999 V2000
   40.9178  -27.6174   -0.0003 C   0  0  0  0  0  0  0  0  0  0  0  0
   40.9166  -28.9494    0.0004 C   0  0  0  0  0  0  0  0  0  0  0  0
   43.3361  -29.0151    0.0003 C   0  0  0  0  0  0  0  0  0  0  0  0
   43.3360  -27.5515    0.0005 C   0  0  0  0  0  0  0  0  0  0  0  0
   42.1847  -29.6794    0.0005 C   0  0  0  0  0  0  0  0  0  0  0  0
   42.1845  -26.8855    0.0006 C   0  0  0  0  0  0  0  0  0  0  0  0
   39.4200  -26.7529   -0.0001 Cl  0  0  0  0  0  0  0  0  0  0  0  0
   42.1838  -25.1567    0.0009 Cl  0  0  0  0  0  0  0  0  0  0  0  0
   44.8339  -26.6873    0.0001 Cl  0  0  0  0  0  0  0  0  0  0  0  0
   44.8341  -29.8784   -0.0003 Cl  0  0  0  0  0  0  0  0  0  0  0  0
   42.1846  -31.4085    0.0005 Cl  0  0  0  0  0  0  0  0  0  0  0  0
   39.4208  -29.8130    0.0003 Cl  0  0  0  0  0  0  0  0  0  0  0  0
  1  2  2  0  0  0  0
  3  4  1  0  0  0  0
  1  6  1  0  0  0  0
  2  5  1  0  0  0  0
  5  3  2  0  0  0  0
  4  6  2  0  0  0  0
  1  7  1  0  0  0  0
  6  8  1  0  0  0  0
  4  9  1  0  0  0  0
  3 10  1  0  0  0  0
  5 11  1  0  0  0  0
  2 12  1  0  0  0  0
M  END
>  <Substance ID> (472)
472

>  <Mouse_Female_Canc> (472)
3

>  <SAL> (472)
1

>  <Rat_Male_Canc> (472)
3

>  <TD50_Rat> (472)
3.86

>  <TD50_Mouse> (472)
65.1

>  <Rat_Female_Canc> (472)
3

>  <Canc> (472)
3

>  <MolWeight> (472)
284.78

>  <Mouse_Male_Canc> (472)
3

>  <Mouse_Male_NTP> (472)
ND

>  <ChemName> (472)
Hexachlorobenzene 

>  <Rat_Male_NTP> (472)
ND

>  <Reference> (472)
CPDB

>  <Formula> (472)
C6Cl6

>  <SMILES> (472)
ClC1=C(C(=C(C(=C1Cl)Cl)Cl)Cl)Cl

>  <Rat_Female_NTP> (472)
ND

>  <CAS> (472)
118-74-1

>  <Mouse_Female_NTP> (472)
ND

>  <Synonyms> (472)
Amatin; Anticarie; Bunt-cure; Bunt-no-more; Ceku C.B.; co-op hexa; granox nm; HCB; hexa c.b.; julian's carbon chloride; No Bunt; no bunt 40; no bunt 80; pentachlorophenyl chloride; perchlorobenzene; sanocide; smut-go; Snieciotox.

$$$$
473


 28 29  0  0  0  0  0  0  0  0999 V2000
   39.6687  -39.8401   -0.1751 C   0  0  0  0  0  0  0  0  0  0  0  0
   39.8148  -41.1545   -0.3886 C   0  0  0  0  0  0  0  0  0  0  0  0
   42.1703  -41.1229    0.1958 C   0  0  0  0  0  0  0  0  0  0  0  0
   42.0391  -39.6972    0.4390 C   0  0  0  0  0  0  0  0  0  0  0  0
   41.1087  -41.8228   -0.1922 C   0  0  0  0  0  0  0  0  0  0  0  0
   40.8635  -39.0970    0.2694 C   0  0  0  0  0  0  0  0  0  0  0  0
   34.4867  -41.2765    0.2147 C   0  0  0  0  0  0  0  0  0  0  0  0
   35.5568  -41.9213   -0.2397 C   0  0  0  0  0  0  0  0  0  0  0  0
   36.9327  -39.8954   -0.1682 C   0  0  0  0  0  0  0  0  0  0  0  0
   35.7303  -39.2135    0.3492 C   0  0  0  0  0  0  0  0  0  0  0  0
   36.8217  -41.2019   -0.4429 C   0  0  0  0  0  0  0  0  0  0  0  0
   34.5803  -39.8601    0.5243 C   0  0  0  0  0  0  0  0  0  0  0  0
   32.9902  -42.1142    0.4354 Cl  0  0  0  0  0  0  0  0  0  0  0  0
   38.2828  -39.0666   -0.4203 C   0  0  0  0  0  0  0  0  0  0  0  0
   38.2497  -37.5476    0.1200 C   0  0  0  0  0  0  0  0  0  0  0  0
   39.6251  -36.5862   -0.4629 Cl  0  0  0  0  0  0  0  0  0  0  0  0
   43.7000  -41.9005    0.4089 Cl  0  0  0  0  0  0  0  0  0  0  0  0
   36.8278  -36.6563   -0.4634 Cl  0  0  0  0  0  0  0  0  0  0  0  0
   39.0267  -41.6923   -0.6880 H   0  0  0  0  0  0  0  0  0  0  0  0
   42.8331  -39.1657    0.7342 H   0  0  0  0  0  0  0  0  0  0  0  0
   41.1909  -42.8067   -0.3507 H   0  0  0  0  0  0  0  0  0  0  0  0
   40.7877  -38.1160    0.4481 H   0  0  0  0  0  0  0  0  0  0  0  0
   35.5007  -42.8986   -0.4438 H   0  0  0  0  0  0  0  0  0  0  0  0
   35.7810  -38.2404    0.5740 H   0  0  0  0  0  0  0  0  0  0  0  0
   37.6161  -41.6978   -0.7936 H   0  0  0  0  0  0  0  0  0  0  0  0
   33.7796  -39.3704    0.8693 H   0  0  0  0  0  0  0  0  0  0  0  0
   38.2816  -38.9795   -1.4165 H   0  0  0  0  0  0  0  0  0  0  0  0
   38.2552  -37.6489    1.1148 H   0  0  0  0  0  0  0  0  0  0  0  0
  1  2  2  0  0  0  0
  3  4  1  0  0  0  0
  1  6  1  0  0  0  0
  2  5  1  0  0  0  0
  5  3  2  0  0  0  0
  4  6  2  0  0  0  0
  7  8  2  0  0  0  0
  9 10  1  0  0  0  0
  7 12  1  0  0  0  0
  8 11  1  0  0  0  0
 11  9  2  0  0  0  0
 10 12  2  0  0  0  0
  7 13  1  0  0  0  0
  9 14  1  0  0  0  0
 14  1  1  0  0  0  0
 14 15  1  0  0  0  0
 15 16  1  0  0  0  0
  3 17  1  0  0  0  0
 15 18  1  0  0  0  0
  2 19  1  0  0  0  0
  4 20  1  0  0  0  0
  5 21  1  0  0  0  0
  6 22  1  0  0  0  0
  8 23  1  0  0  0  0
 10 24  1  0  0  0  0
 11 25  1  0  0  0  0
 12 26  1  0  0  0  0
 14 27  1  0  0  0  0
 15 28  1  0  0  0  0
M  END
>  <Substance ID> (473)
473

>  <Mouse_Female_Canc> (473)
3

>  <SAL> (473)
1

>  <Rat_Male_Canc> (473)
1

>  <TD50_Rat> (473)
NP

>  <TD50_Mouse> (473)
30.7

>  <Rat_Female_Canc> (473)
1

>  <Canc> (473)
3

>  <MolWeight> (473)
320.05

>  <Mouse_Male_Canc> (473)
3

>  <Mouse_Male_NTP> (473)
ND

>  <ChemName> (473)
p,p'-DDD

>  <Rat_Male_NTP> (473)
ND

>  <Reference> (473)
CPDB

>  <Formula> (473)
C14H10Cl4

>  <SMILES> (473)
ClC(C(C1=CC=C(C=C1)Cl)C2=CC=C(C=C2)Cl)Cl

>  <Rat_Female_NTP> (473)
ND

>  <CAS> (473)
72-54-8

>  <Mouse_Female_NTP> (473)
ND

>  <Synonyms> (473)
1,1'-(2,2-dichloroethylidene)bis[4-chlorobenzene]; 1,1-bis(p-chlorophenyl)-2,2-dichloroethane; 1,1-Dichloro-2,2-bis(p-chlorophenyl)ethane; 2,2-bis-(4-chlorophenyl)-1,1-dichloroethane; p,p'-Dichlorodiphenyl dichloroethane; p,p'-Dichlorodiphenyldichloroethane (DDD); 4,4-DDD; p,p'-TDE; p,p[-DDD; Dichloro-2,2-bis(p-chlorophenyl)ethane; Dichlorodiphenyldichloroethane; dilene; DDD; me-1700; oms 1078; Rhothane; rhothane D-3; rothane; TDE; tetrachlorodiphenylethane.

$$$$
474


 31 33  0  0  0  0  0  0  0  0999 V2000
   28.2012  -48.4717    0.0005 C   0  0  0  0  0  0  0  0  0  0  0  0
   27.1779  -47.3415    0.0031 C   0  0  0  0  0  0  0  0  0  0  0  0
   27.7432  -46.1516   -0.0012 C   0  0  0  0  0  0  0  0  0  0  0  0
   25.6404  -45.0369    0.0019 C   0  0  0  0  0  0  0  0  0  0  0  0
   24.9943  -46.3854    0.0076 C   0  0  0  0  0  0  0  0  0  0  0  0
   26.9734  -44.9252   -0.0015 C   0  0  0  0  0  0  0  0  0  0  0  0
   25.7402  -47.4941    0.0083 C   0  0  0  0  0  0  0  0  0  0  0  0
   29.1515  -46.3080   -0.0057 C   0  0  0  0  0  0  0  0  0  0  0  0
   29.4444  -47.5917   -0.0039 C   0  0  0  0  0  0  0  0  0  0  0  0
   31.7825  -47.1480   -0.0061 C   0  0  0  0  0  0  0  0  0  0  0  0
   31.4403  -45.6828   -0.0085 C   0  0  0  0  0  0  0  0  0  0  0  0
   30.8054  -48.0554   -0.0047 C   0  0  0  0  0  0  0  0  0  0  0  0
   30.1669  -45.2807   -0.0083 C   0  0  0  0  0  0  0  0  0  0  0  0
   33.1152  -47.6143   -0.0037 N   0  0  0  0  0  0  0  0  0  0  0  0
   34.2334  -46.7513    0.0058 C   0  0  0  0  0  0  0  0  0  0  0  0
   33.3236  -48.9243   -0.0084 O   0  0  0  0  0  0  0  0  0  0  0  0
   35.6077  -47.3442    0.0105 C   0  0  0  0  0  0  0  0  0  0  0  0
   34.1118  -45.5223    0.0127 O   0  0  0  0  0  0  0  0  0  0  0  0
   28.1407  -49.0449    0.8176 H   0  0  0  0  0  0  0  0  0  0  0  0
   28.1356  -49.0458   -0.8157 H   0  0  0  0  0  0  0  0  0  0  0  0
   25.0727  -44.2138    0.0006 H   0  0  0  0  0  0  0  0  0  0  0  0
   23.9969  -46.4580    0.0110 H   0  0  0  0  0  0  0  0  0  0  0  0
   27.4204  -44.0306   -0.0042 H   0  0  0  0  0  0  0  0  0  0  0  0
   25.3176  -48.4004    0.0122 H   0  0  0  0  0  0  0  0  0  0  0  0
   32.1739  -45.0032   -0.0103 H   0  0  0  0  0  0  0  0  0  0  0  0
   31.0138  -49.0334   -0.0042 H   0  0  0  0  0  0  0  0  0  0  0  0
   29.9266  -44.3100   -0.0098 H   0  0  0  0  0  0  0  0  0  0  0  0
   34.3070  -49.1058   -0.0060 H   0  0  0  0  0  0  0  0  0  0  0  0
   36.2875  -46.6109    0.0172 H   0  0  0  0  0  0  0  0  0  0  0  0
   35.7318  -47.9056   -0.8077 H   0  0  0  0  0  0  0  0  0  0  0  0
   35.7232  -47.9127    0.8250 H   0  0  0  0  0  0  0  0  0  0  0  0
  2  1  1  0  0  0  0
  1  9  1  0  0  0  0
  3  8  1  0  0  0  0
  2  3  2  0  0  0  0
  4  5  1  0  0  0  0
  2  7  1  0  0  0  0
  3  6  1  0  0  0  0
  6  4  2  0  0  0  0
  5  7  2  0  0  0  0
  8  9  2  0  0  0  0
 10 11  1  0  0  0  0
  8 13  1  0  0  0  0
  9 12  1  0  0  0  0
 12 10  2  0  0  0  0
 11 13  2  0  0  0  0
 10 14  1  0  0  0  0
 14 15  1  0  0  0  0
 14 16  1  0  0  0  0
 15 17  1  0  0  0  0
 15 18  2  0  0  0  0
  1 19  1  0  0  0  0
  1 20  1  0  0  0  0
  4 21  1  0  0  0  0
  5 22  1  0  0  0  0
  6 23  1  0  0  0  0
  7 24  1  0  0  0  0
 11 25  1  0  0  0  0
 12 26  1  0  0  0  0
 13 27  1  0  0  0  0
 16 28  1  0  0  0  0
 17 29  1  0  0  0  0
 17 30  1  0  0  0  0
 17 31  1  0  0  0  0
M  END
>  <Substance ID> (474)
474

>  <Mouse_Female_Canc> (474)
3

>  <SAL> (474)
3

>  <Rat_Male_Canc> (474)
3

>  <TD50_Rat> (474)
9.88E-04

>  <TD50_Mouse> (474)
6.23

>  <Rat_Female_Canc> (474)
3

>  <Canc> (474)
3

>  <MolWeight> (474)
239.27

>  <Mouse_Male_Canc> (474)
ND

>  <Mouse_Male_NTP> (474)
ND

>  <ChemName> (474)
N-hydroxy-2-acetylaminofluorene

>  <Rat_Male_NTP> (474)
ND

>  <Reference> (474)
CPDB

>  <Formula> (474)
C15H13NO2

>  <SMILES> (474)
CC(=O)N(O)C1=CC2=C(C=C1)C3=CC=CC=C3C2

>  <Rat_Female_NTP> (474)
ND

>  <CAS> (474)
53-95-2

>  <Mouse_Female_NTP> (474)
ND

>  <Synonyms> (474)
Acetamide, N-fluoren-2-yl-N-hydroxy; fluorenyl-2-acethydroxamic acid; Hydroxy-N-2-fluorenylacetamide; N-fluoren-2-ylacetohydroxamic acid; n-ho-aaf; N-hydroxy-2-acetamidofluorene; N-hydroxy-2-faa; N-hydroxy-N-2-fluorenylacetamide; N-hydroxy-N-acetyl-2-aminofluorene; nohfaa.

$$$$
475
  

 26 28  0  0  0  0  0  0  0  0999 V2000
   16.5405  -15.7511   -0.0009 O   0  0  0  0  0  0  0  0  0  1  0  0
   16.5188  -14.5157   -0.0008 C   0  0  0  0  0  0  0  0  0  2  0  0
   17.7817  -13.7591   -0.0006 C   0  0  0  0  0  0  0  0  0  3  0  0
   17.7825  -12.4205    0.0000 C   0  0  0  0  0  0  0  0  0  4  0  0
   19.0539  -11.6924    0.0001 C   0  0  0  0  0  0  0  0  0  5  0  0
   20.2076  -12.3561    0.0003 C   0  0  0  0  0  0  0  0  0  6  0  0
   20.2091  -13.8167    0.0006 C   0  0  0  0  0  0  0  0  0  7  0  0
   19.0570  -14.4848    0.0003 C   0  0  0  0  0  0  0  0  0  8  0  0
   19.0654  -15.8754    0.0004 O   0  0  0  0  0  0  0  0  0  9  0  0
   16.5226  -11.6611   -0.0003 C   0  0  0  0  0  0  0  0  0 10  0  0
   16.5478  -10.4253   -0.0003 O   0  0  0  0  0  0  0  0  0 11  0  0
   15.2506  -12.3609    0.0010 C   0  0  0  0  0  0  0  0  0 12  0  0
   14.1041  -11.6842    0.0010 C   0  0  0  0  0  0  0  0  0 13  0  0
   12.8315  -12.4089    0.0005 C   0  0  0  0  0  0  0  0  0 14  0  0
   12.8266  -13.7409    0.0006 C   0  0  0  0  0  0  0  0  0 15  0  0
   14.0937  -14.4749    0.0008 C   0  0  0  0  0  0  0  0  0 16  0  0
   15.2463  -13.8069    0.0008 C   0  0  0  0  0  0  0  0  0 17  0  0
   14.0892  -15.8661   -0.0002 O   0  0  0  0  0  0  0  0  0 18  0  0
   19.0549  -10.6924   -0.0000 H   0  0  0  0  0  0  0  0  0  0  0  0
   21.0730  -11.8550    0.0002 H   0  0  0  0  0  0  0  0  0  0  0  0
   21.0758  -14.3154    0.0012 H   0  0  0  0  0  0  0  0  0  0  0  0
   20.0100  -16.2035    0.0010 H   0  0  0  0  0  0  0  0  0  0  0  0
   14.1119  -10.6842    0.0014 H   0  0  0  0  0  0  0  0  0  0  0  0
   11.9679  -11.9048    0.0001 H   0  0  0  0  0  0  0  0  0  0  0  0
   11.9593  -14.2387    0.0006 H   0  0  0  0  0  0  0  0  0  0  0  0
   15.0307  -16.2030    0.0001 H   0  0  0  0  0  0  0  0  0  0  0  0
  1  2  2  0  0  0  0
  2  3  1  0  0  0  0
  2 17  1  0  0  0  0
  3  4  2  0  0  0  0
  3  8  1  0  0  0  0
  4  5  1  0  0  0  0
  4 10  1  0  0  0  0
  5  6  2  0  0  0  0
  6  7  1  0  0  0  0
  7  8  2  0  0  0  0
  8  9  1  0  0  0  0
 10 11  2  0  0  0  0
 10 12  1  0  0  0  0
 12 13  2  0  0  0  0
 12 17  1  0  0  0  0
 13 14  1  0  0  0  0
 14 15  2  0  0  0  0
 15 16  1  0  0  0  0
 16 17  2  0  0  0  0
 16 18  1  0  0  0  0
  5 19  1  0  0  0  0
  6 20  1  0  0  0  0
  7 21  1  0  0  0  0
  9 22  1  0  0  0  0
 13 23  1  0  0  0  0
 14 24  1  0  0  0  0
 15 25  1  0  0  0  0
 18 26  1  0  0  0  0
M  END
>  <Substance ID> (475)
475

>  <Mouse_Female_Canc> (475)
ND

>  <SAL> (475)
3

>  <Rat_Male_Canc> (475)
3

>  <TD50_Rat> (475)
245

>  <TD50_Mouse> (475)
201

>  <Rat_Female_Canc> (475)
ND

>  <Canc> (475)
3

>  <MolWeight> (475)
240.21

>  <Mouse_Male_Canc> (475)
3

>  <Mouse_Male_NTP> (475)
ND

>  <ChemName> (475)
Chrysazin

>  <Rat_Male_NTP> (475)
ND

>  <Reference> (475)
CPDB

>  <Formula> (475)
C14H8O4

>  <SMILES> (475)
O=C1C2=C(C=CC=C2O)C(=O)C3=CC=CC(=C13)O

>  <Rat_Female_NTP> (475)
ND

>  <CAS> (475)
117-10-2

>  <Mouse_Female_NTP> (475)
ND

>  <Synonyms> (475)
1,8-dihydroxy-9,10-anthracenedione; 1,8-dihydroxy-9,10-anthraquinone; Modane; zwitsalax; 1,8-Dihydroxyanthraquinone; 1,8-dioxyanthraquinone; Altan; antrapurol; dianthon; diaquone; dihydroxyanthraquinone; dioxyanthrachinonum; danivac; danthro-lax; Danthron; Dantron; Dantron (Chrysazin; dorbane; dorbanex; duolax; Istin; istizin; laxanorm; laxanthreen; laxipur; laxipurin; LTAN.

$$$$
476


 18 19  0  0  0  0  0  0  0  0999 V2000
   31.6222  -67.6203    0.0004 C   0  0  0  0  0  0  0  0  0  0  0  0
   32.5825  -69.0624   -0.0031 S   0  0  0  0  0  0  0  0  0  0  0  0
   34.0012  -68.0582    0.0002 C   0  0  0  0  0  0  0  0  0  0  0  0
   33.7080  -66.8145    0.0037 N   0  0  0  0  0  0  0  0  0  0  0  0
   32.3445  -66.5656    0.0035 N   0  0  0  0  0  0  0  0  0  0  0  0
   29.3091  -68.7211    0.0032 O   0  0  0  0  0  0  0  0  0  0  0  0
   30.1538  -67.5789   -0.0008 C   0  0  0  0  0  0  0  0  0  0  0  0
   29.4848  -66.4332   -0.0061 C   0  0  0  0  0  0  0  0  0  0  0  0
   28.1050  -66.7609   -0.0077 C   0  0  0  0  0  0  0  0  0  0  0  0
   28.0327  -68.0835   -0.0004 C   0  0  0  0  0  0  0  0  0  0  0  0
   35.3117  -68.5461   -0.0012 N   0  0  0  0  0  0  0  0  0  0  0  0
   26.8164  -68.7616    0.0024 N   0  3  0  0  0  0  0  0  0  0  0  0
   25.6842  -68.0748    0.0007 O   0  5  0  0  0  0  0  0  0  0  0  0
   26.7961  -69.9347    0.0052 O   0  0  0  0  0  0  0  0  0  0  0  0
   29.8783  -65.5139   -0.0086 H   0  0  0  0  0  0  0  0  0  0  0  0
   27.3376  -66.1197   -0.0131 H   0  0  0  0  0  0  0  0  0  0  0  0
   36.0824  -67.9090    0.0009 H   0  0  0  0  0  0  0  0  0  0  0  0
   35.4781  -69.5321   -0.0042 H   0  0  0  0  0  0  0  0  0  0  0  0
  1  2  1  0  0  0  0
  2  3  1  0  0  0  0
  3  4  2  0  0  0  0
  4  5  1  0  0  0  0
  5  1  2  0  0  0  0
  9 10  2  0  0  0  0
  7  8  2  0  0  0  0
  6  7  1  0  0  0  0
  8  9  1  0  0  0  0
 10  6  1  0  0  0  0
  7  1  1  0  0  0  0
  3 11  1  0  0  0  0
 10 12  1  0  0  0  0
 12 13  1  0  0  0  0
 12 14  2  0  0  0  0
  8 15  1  0  0  0  0
  9 16  1  0  0  0  0
 11 17  1  0  0  0  0
 11 18  1  0  0  0  0
M  END
>  <Substance ID> (476)
476

>  <Mouse_Female_Canc> (476)
ND

>  <SAL> (476)
ND

>  <Rat_Male_Canc> (476)
ND

>  <TD50_Rat> (476)
0.662

>  <TD50_Mouse> (476)
ND

>  <Rat_Female_Canc> (476)
3

>  <Canc> (476)
3

>  <MolWeight> (476)
212.18

>  <Mouse_Male_Canc> (476)
ND

>  <Mouse_Male_NTP> (476)
ND

>  <ChemName> (476)
2-Amino-5-(5-nitro-2-furyl)-1,3,4-thiadiazole

>  <Rat_Male_NTP> (476)
ND

>  <Reference> (476)
CPDB

>  <Formula> (476)
C6H4N4O3S

>  <SMILES> (476)
[O-][N+](=O)c2oc(c1nnc(s1)N)cc2

>  <Rat_Female_NTP> (476)
ND

>  <CAS> (476)
712-68-5

>  <Mouse_Female_NTP> (476)
ND

>  <Synonyms> (476)
2-(5-NITRO-2-FURYL)-5-AMINO-1,3,4-THIADIAZOLE.

$$$$
477


 23 22  0  0  0  0  0  0  0  0999 V2000
   30.8729  -75.1715   -0.0804 C   0  0  0  0  0  0  0  0  0  0  0  0
   32.1765  -74.3712    0.0979 C   0  0  0  0  0  0  0  0  0  0  0  0
   33.5969  -75.4690   -0.1343 S   0  0  0  0  0  0  0  0  0  0  0  0
   35.1288  -74.5306    0.0902 C   0  0  0  0  0  0  0  0  0  0  0  0
   36.3374  -75.4631   -0.0965 C   0  0  0  0  0  0  0  0  0  0  0  0
   37.6348  -74.6610    0.1084 C   0  0  2  0  0  0  0  0  0  0  0  0
   37.7369  -73.5388   -0.8355 N   0  0  0  0  0  0  0  0  0  0  0  0
   38.8359  -75.5451   -0.0455 C   0  0  0  0  0  0  0  0  0  0  0  0
   38.6982  -76.7719   -0.1064 O   0  0  0  0  0  0  0  0  0  0  0  0
   40.1063  -74.9836   -0.1188 O   0  0  0  0  0  0  0  0  0  0  0  0
   30.0885  -74.5647    0.0479 H   0  0  0  0  0  0  0  0  0  0  0  0
   30.8382  -75.9079    0.5953 H   0  0  0  0  0  0  0  0  0  0  0  0
   30.8443  -75.5623   -1.0005 H   0  0  0  0  0  0  0  0  0  0  0  0
   32.2105  -73.6351   -0.5781 H   0  0  0  0  0  0  0  0  0  0  0  0
   32.2043  -73.9808    1.0182 H   0  0  0  0  0  0  0  0  0  0  0  0
   35.1697  -73.7940   -0.5849 H   0  0  0  0  0  0  0  0  0  0  0  0
   35.1484  -74.1410    1.0109 H   0  0  0  0  0  0  0  0  0  0  0  0
   36.2938  -76.2044    0.5733 H   0  0  0  0  0  0  0  0  0  0  0  0
   36.3240  -75.8464   -1.0200 H   0  0  0  0  0  0  0  0  0  0  0  0
   37.6056  -74.2932    1.0378 H   0  0  0  0  0  0  0  0  0  0  0  0
   38.5896  -73.0424   -0.6730 H   0  0  0  0  0  0  0  0  0  0  0  0
   36.9618  -72.9207   -0.7043 H   0  0  0  0  0  0  0  0  0  0  0  0
   40.7868  -75.7094   -0.2194 H   0  0  0  0  0  0  0  0  0  0  0  0
  1  2  1  0  0  0  0
  2  3  1  0  0  0  0
  3  4  1  0  0  0  0
  4  5  1  0  0  0  0
  5  6  1  0  0  0  0
  6  7  1  6  0  0  0
  6  8  1  0  0  0  0
  8  9  2  0  0  0  0
  8 10  1  0  0  0  0
  1 11  1  0  0  0  0
  1 12  1  0  0  0  0
  1 13  1  0  0  0  0
  2 14  1  0  0  0  0
  2 15  1  0  0  0  0
  4 16  1  0  0  0  0
  4 17  1  0  0  0  0
  5 18  1  0  0  0  0
  5 19  1  0  0  0  0
  6 20  1  0  0  0  0
  7 21  1  0  0  0  0
  7 22  1  0  0  0  0
 10 23  1  0  0  0  0
M  END
>  <Substance ID> (477)
477

>  <Mouse_Female_Canc> (477)
ND

>  <SAL> (477)
1

>  <Rat_Male_Canc> (477)
3

>  <TD50_Rat> (477)
4.97

>  <TD50_Mouse> (477)
ND

>  <Rat_Female_Canc> (477)
ND

>  <Canc> (477)
3

>  <MolWeight> (477)
163.23

>  <Mouse_Male_Canc> (477)
ND

>  <Mouse_Male_NTP> (477)
ND

>  <ChemName> (477)
L-Ethionine

>  <Rat_Male_NTP> (477)
ND

>  <Reference> (477)
CPDB

>  <Formula> (477)
C6H13NO2S

>  <SMILES> (477)
N[C@@H](CCSCC)C(=O)O

>  <Rat_Female_NTP> (477)
ND

>  <CAS> (477)
13073-35-3

>  <Mouse_Female_NTP> (477)
ND

>  <Synonyms> (477)
L-Ethionine; L-Homocysteine, S-ethyl-.

$$$$
478


 44 44  0  0  0  0  0  0  0  0999 V2000
   28.9498  -82.3302    0.0258 C   0  0  0  0  0  0  0  0  0  0  0  0
   29.8548  -83.2939   -0.0988 C   0  0  0  0  0  0  0  0  0  0  0  0
   31.6813  -81.6856   -0.0300 C   0  0  0  0  0  0  0  0  0  0  0  0
   30.6749  -80.6363    0.0886 C   0  0  0  0  0  0  0  0  0  0  0  0
   31.2941  -82.9676   -0.1296 C   0  0  0  0  0  0  0  0  0  0  0  0
   29.3795  -80.9339    0.1157 C   0  0  0  0  0  0  0  0  0  0  0  0
   27.4727  -82.6471    0.0911 C   0  0  0  0  0  0  0  0  0  0  0  0
   26.8464  -82.3357   -1.2798 C   0  0  0  0  0  0  0  0  0  0  0  0
   26.7900  -81.7194    1.1154 C   0  0  0  0  0  0  0  0  0  0  0  0
   27.2377  -84.1342    0.4268 C   0  0  0  0  0  0  0  0  0  0  0  0
   33.0339  -81.3188   -0.0254 O   0  0  0  0  0  0  0  0  0  0  0  0
   33.9411  -82.4001   -0.1361 C   0  0  0  0  0  0  0  0  0  0  0  0
   35.3119  -81.7658   -0.0302 C   0  0  1  0  0  0  0  0  0  0  0  0
   36.3198  -82.7441   -0.1586 O   0  0  0  0  0  0  0  0  0  0  0  0
   37.7801  -82.0231    0.0365 S   0  0  0  0  0  0  0  0  0  0  0  0
   35.4428  -80.7283   -1.1659 C   0  0  0  0  0  0  0  0  0  0  0  0
   39.1436  -82.8975   -0.1345 O   0  0  0  0  0  0  0  0  0  0  0  0
   37.8945  -80.5949    0.3648 O   0  0  0  0  0  0  0  0  0  0  0  0
   40.2504  -82.0224    0.0636 C   0  0  0  0  0  0  0  0  0  0  0  0
   41.5525  -82.7901   -0.1493 C   0  0  0  0  0  0  0  0  0  0  0  0
   42.9126  -81.6884    0.0652 Cl  0  0  0  0  0  0  0  0  0  0  0  0
   29.5595  -84.2465   -0.1723 H   0  0  0  0  0  0  0  0  0  0  0  0
   30.9631  -79.6808    0.1504 H   0  0  0  0  0  0  0  0  0  0  0  0
   31.9744  -83.6944   -0.2238 H   0  0  0  0  0  0  0  0  0  0  0  0
   28.6998  -80.2049    0.1973 H   0  0  0  0  0  0  0  0  0  0  0  0
   25.8679  -82.5401   -1.2539 H   0  0  0  0  0  0  0  0  0  0  0  0
   27.2851  -82.8963   -1.9822 H   0  0  0  0  0  0  0  0  0  0  0  0
   26.9788  -81.3682   -1.4952 H   0  0  0  0  0  0  0  0  0  0  0  0
   25.8134  -81.9300    1.1576 H   0  0  0  0  0  0  0  0  0  0  0  0
   26.9134  -80.7668    0.8372 H   0  0  0  0  0  0  0  0  0  0  0  0
   27.1998  -81.8587    2.0170 H   0  0  0  0  0  0  0  0  0  0  0  0
   26.2553  -84.3168    0.4639 H   0  0  0  0  0  0  0  0  0  0  0  0
   27.6492  -84.3453    1.3135 H   0  0  0  0  0  0  0  0  0  0  0  0
   27.6562  -84.7058   -0.2790 H   0  0  0  0  0  0  0  0  0  0  0  0
   33.7986  -83.0569    0.6044 H   0  0  0  0  0  0  0  0  0  0  0  0
   33.8336  -82.8615   -1.0168 H   0  0  0  0  0  0  0  0  0  0  0  0
   35.4173  -81.3273    0.8624 H   0  0  0  0  0  0  0  0  0  0  0  0
   36.3419  -80.2933   -1.1186 H   0  0  0  0  0  0  0  0  0  0  0  0
   34.7309  -80.0330   -1.0665 H   0  0  0  0  0  0  0  0  0  0  0  0
   35.3404  -81.1858   -2.0492 H   0  0  0  0  0  0  0  0  0  0  0  0
   40.1986  -81.2669   -0.5895 H   0  0  0  0  0  0  0  0  0  0  0  0
   40.2259  -81.6603    0.9954 H   0  0  0  0  0  0  0  0  0  0  0  0
   41.6156  -83.5336    0.5164 H   0  0  0  0  0  0  0  0  0  0  0  0
   41.5707  -83.1683   -1.0749 H   0  0  0  0  0  0  0  0  0  0  0  0
  1  2  2  0  0  0  0
  3  4  1  0  0  0  0
  1  6  1  0  0  0  0
  2  5  1  0  0  0  0
  5  3  2  0  0  0  0
  4  6  2  0  0  0  0
  1  7  1  0  0  0  0
  7  8  1  0  0  0  0
  7  9  1  0  0  0  0
  7 10  1  0  0  0  0
  3 11  1  0  0  0  0
 11 12  1  0  0  0  0
 12 13  1  0  0  0  0
 13 14  1  0  0  0  0
 14 15  1  0  0  0  0
 13 16  1  6  0  0  0
 15 17  1  0  0  0  0
 15 18  2  0  0  0  0
 17 19  1  0  0  0  0
 19 20  1  0  0  0  0
 20 21  1  0  0  0  0
  2 22  1  0  0  0  0
  4 23  1  0  0  0  0
  5 24  1  0  0  0  0
  6 25  1  0  0  0  0
  8 26  1  0  0  0  0
  8 27  1  0  0  0  0
  8 28  1  0  0  0  0
  9 29  1  0  0  0  0
  9 30  1  0  0  0  0
  9 31  1  0  0  0  0
 10 32  1  0  0  0  0
 10 33  1  0  0  0  0
 10 34  1  0  0  0  0
 12 35  1  0  0  0  0
 12 36  1  0  0  0  0
 13 37  1  0  0  0  0
 16 38  1  0  0  0  0
 16 39  1  0  0  0  0
 16 40  1  0  0  0  0
 19 41  1  0  0  0  0
 19 42  1  0  0  0  0
 20 43  1  0  0  0  0
 20 44  1  0  0  0  0
M  END
>  <Substance ID> (478)
478

>  <Mouse_Female_Canc> (478)
1

>  <SAL> (478)
ND

>  <Rat_Male_Canc> (478)
3

>  <TD50_Rat> (478)
96.7

>  <TD50_Mouse> (478)
158

>  <Rat_Female_Canc> (478)
3

>  <Canc> (478)
3

>  <MolWeight> (478)
334.86

>  <Mouse_Male_Canc> (478)
3

>  <Mouse_Male_NTP> (478)
ND

>  <ChemName> (478)
Aramite

>  <Rat_Male_NTP> (478)
ND

>  <Reference> (478)
CPDB

>  <Formula> (478)
C15H23ClO4S

>  <SMILES> (478)
O=S(OCCCl)O[C@H](COc1ccc(cc1)C(C)(C)C)C

>  <Rat_Female_NTP> (478)
ND

>  <CAS> (478)
140-57-8

>  <Mouse_Female_NTP> (478)
ND

>  <Synonyms> (478)
2-chloroethyl 2-(4-(1,1-dimethylethyl)phenoxy)-1-methylethyl sulfite; Aracide; Niagaramite; Sulfurous acid, 2-(p-t-butylphenoxy)-1-methylethyl-2-chloroethyl ester; Sulfurous acid 2-chloroethyl 2-[4-(1,1-dimethylethyl)phenoxy] 1-methylethyl ester.

$$$$
479


 13 13  0  0  0  0  0  0  0  0999 V2000
   35.9107  -84.4753    0.0001 N   0  0  0  0  0  0  0  0  0  0  0  0
   34.7731  -85.2781   -0.0023 C   0  0  0  0  0  0  0  0  0  0  0  0
   35.1825  -86.5561   -0.0013 C   0  0  0  0  0  0  0  0  0  0  0  0
   36.6030  -86.5881    0.0009 N   0  0  0  0  0  0  0  0  0  0  0  0
   37.0149  -85.2722    0.0008 C   0  0  0  0  0  0  0  0  0  0  0  0
   35.9182  -83.0407    0.0011 C   0  0  0  0  0  0  0  0  0  0  0  0
   38.4996  -84.7784   -0.0010 S   0  0  0  0  0  0  0  0  0  0  0  0
   33.8249  -84.9605   -0.0043 H   0  0  0  0  0  0  0  0  0  0  0  0
   34.5840  -87.3572   -0.0020 H   0  0  0  0  0  0  0  0  0  0  0  0
   37.1860  -87.4005    0.0024 H   0  0  0  0  0  0  0  0  0  0  0  0
   36.8626  -82.7119    0.0028 H   0  0  0  0  0  0  0  0  0  0  0  0
   35.4474  -82.7050    0.8170 H   0  0  0  0  0  0  0  0  0  0  0  0
   35.4499  -82.7038   -0.8158 H   0  0  0  0  0  0  0  0  0  0  0  0
  2  3  2  0  0  0  0
  1  2  1  0  0  0  0
  3  4  1  0  0  0  0
  4  5  1  0  0  0  0
  5  1  1  0  0  0  0
  1  6  1  0  0  0  0
  5  7  2  0  0  0  0
  2  8  1  0  0  0  0
  3  9  1  0  0  0  0
  4 10  1  0  0  0  0
  6 11  1  0  0  0  0
  6 12  1  0  0  0  0
  6 13  1  0  0  0  0
M  END
>  <Substance ID> (479)
479

>  <Mouse_Female_Canc> (479)
ND

>  <SAL> (479)
1

>  <Rat_Male_Canc> (479)
3

>  <TD50_Rat> (479)
1.14

>  <TD50_Mouse> (479)
ND

>  <Rat_Female_Canc> (479)
3

>  <Canc> (479)
3

>  <MolWeight> (479)
114.16

>  <Mouse_Male_Canc> (479)
ND

>  <Mouse_Male_NTP> (479)
ND

>  <ChemName> (479)
Methimazole

>  <Rat_Male_NTP> (479)
ND

>  <Reference> (479)
CPDB

>  <Formula> (479)
C4H6N2S

>  <SMILES> (479)
N\1C(N(/C=C/1)C)=S

>  <Rat_Female_NTP> (479)
ND

>  <CAS> (479)
60-56-0

>  <Mouse_Female_NTP> (479)
ND

>  <Synonyms> (479)
1-Methyl-2-Imidazolethione; 1-Methylimidazole-2-thiol; 2H-Imidazole-2-thione, 1,3-dihydro-1-methyl-; 2-Mercapto-1-methylimidazole; Thiamazole.

$$$$
480


 18 18  0  0  0  0  0  0  0  0999 V2000
    3.3638   -5.4425    0.2647 C   0  0  0  0  0  0  0  0  0  0  0  0
    3.3811   -6.8919   -0.2557 C   0  0  0  0  0  0  0  0  0  0  0  0
    5.8957   -6.8590   -0.2645 C   0  0  0  0  0  0  0  0  0  0  0  0
    4.6494   -7.6041    0.2505 C   0  0  0  0  0  0  0  0  0  0  0  0
    4.6089   -4.6976   -0.2505 C   0  0  0  0  0  0  0  0  0  0  0  0
    4.5894   -3.0341    0.3463 Cl  0  0  0  0  0  0  0  0  0  0  0  0
    7.3511   -7.6750    0.3161 Cl  0  0  0  0  0  0  0  0  0  0  0  0
    1.9508   -7.7467    0.3352 Cl  0  0  0  0  0  0  0  0  0  0  0  0
    7.3073   -4.5550   -0.3351 Cl  0  0  0  0  0  0  0  0  0  0  0  0
    4.6692   -9.2668   -0.3458 Cl  0  0  0  0  0  0  0  0  0  0  0  0
    1.9077   -4.6265   -0.3160 Cl  0  0  0  0  0  0  0  0  0  0  0  0
    5.8786   -5.4096    0.2553 C   0  0  0  0  0  0  0  0  0  0  0  0
    3.3677   -5.4470    1.2647 H   0  0  0  0  0  0  0  0  0  0  0  0
    3.3778   -6.8871   -1.2556 H   0  0  0  0  0  0  0  0  0  0  0  0
    5.8920   -6.8548   -1.2645 H   0  0  0  0  0  0  0  0  0  0  0  0
    4.6528   -7.6089    1.2504 H   0  0  0  0  0  0  0  0  0  0  0  0
    4.6046   -4.6930   -1.2505 H   0  0  0  0  0  0  0  0  0  0  0  0
    5.8825   -5.4141    1.2553 H   0  0  0  0  0  0  0  0  0  0  0  0
  3 12  1  0  0  0  0
  1  5  1  0  0  0  0
  2  4  1  0  0  0  0
  5  6  1  1  0  0  0
  3  7  1  1  0  0  0
  2  8  1  1  0  0  0
 12  9  1  6  0  0  0
  4 10  1  6  0  0  0
  1 11  1  6  0  0  0
  5 12  1  0  0  0  0
  4  3  1  0  0  0  0
  2  1  1  0  0  0  0
  1 13  1  0  0  0  0
  2 14  1  0  0  0  0
  3 15  1  0  0  0  0
  4 16  1  0  0  0  0
  5 17  1  0  0  0  0
 12 18  1  0  0  0  0
M  END
>  <Substance ID> (480)
480

>  <Mouse_Female_Canc> (480)
3

>  <SAL> (480)
1

>  <Rat_Male_Canc> (480)
ND

>  <TD50_Rat> (480)
ND

>  <TD50_Mouse> (480)
27.8

>  <Rat_Female_Canc> (480)
ND

>  <Canc> (480)
3

>  <MolWeight> (480)
290.83

>  <Mouse_Male_Canc> (480)
3

>  <Mouse_Male_NTP> (480)
ND

>  <ChemName> (480)
beta-1,2,3,4,5,6-Hexachlorocyclohexane

>  <Rat_Male_NTP> (480)
ND

>  <Reference> (480)
CPDB

>  <Formula> (480)
C6H6Cl6

>  <SMILES> (480)
Cl[C@@H]1[C@@H](Cl)[C@H](Cl)[C@@H](Cl)[C@H](Cl)[C@H]1Cl

>  <Rat_Female_NTP> (480)
ND

>  <CAS> (480)
319-85-7

>  <Mouse_Female_NTP> (480)
ND

>  <Synonyms> (480)
(1alpha,2beta,3alpha,4beta,5alpha,6beta)-1,2,3,4,5,6-hexachlorocyclohexane; 1a,2b,3a,4b,5a,6b-hexachlorocyclohexane; beta-benzene hexachloride; beta-BHC; benzene-cis-hexachloride; beta-HCH; beta-Hexachlorocyclohexane; beta-Hexachlorocyclohexane; beta-Hexachlorocyclohexanes; beta-isomer; beta-lindane; HCH (beta); Hexachlorocyclohexane-Beta; trans-alpha-benzenehexachloride.

$$$$
481


 44 47  0  0  0  0  0  0  0  0999 V2000
    8.3266  -17.7062   -0.4936 C   0  0  0  0  0  0  0  0  0  0  0  0
    7.0204  -18.4693   -0.1391 C   0  0  0  0  0  0  0  0  0  0  0  0
    7.2079  -19.9841   -0.5025 C   0  0  2  0  0  0  0  0  0  0  0  0
    5.9468  -20.7399   -0.2617 C   0  0  0  0  0  0  0  0  0  0  0  0
    7.3046  -22.8779    0.3601 C   0  0  0  0  0  0  0  0  0  0  0  0
    5.9874  -22.1579    0.1332 C   0  0  0  0  0  0  0  0  0  0  0  0
    4.8443  -22.8186    0.3206 C   0  0  0  0  0  0  0  0  0  0  0  0
    3.5597  -22.1388    0.1302 C   0  0  0  0  0  0  0  0  0  0  0  0
    3.5289  -20.8552   -0.2195 C   0  0  0  0  0  0  0  0  0  0  0  0
    4.7759  -20.1264   -0.4249 C   0  0  0  0  0  0  0  0  0  0  0  0
    8.3876  -20.6083    0.2777 C   0  0  1  0  0  0  0  0  0  0  0  0
    8.5414  -22.0717   -0.1279 C   0  0  0  0  0  0  0  0  0  0  0  0
    9.4894  -18.3335    0.2907 C   0  0  1  0  0  0  0  0  0  0  0  0
    9.6421  -19.7830   -0.0726 C   0  0  2  0  0  0  0  0  0  0  0  0
   10.9290  -20.1915    0.6864 C   0  0  0  0  0  0  0  0  0  0  0  0
   11.7728  -18.8513    0.6510 C   0  0  0  0  0  0  0  0  0  0  0  0
   10.8640  -17.8944   -0.1688 C   0  0  1  0  0  0  0  0  0  0  0  0
    9.2962  -18.1083    1.8209 C   0  0  0  0  0  0  0  0  0  0  0  0
   11.1527  -16.5108    0.0355 O   0  0  0  0  0  0  0  0  0  0  0  0
    2.3706  -22.8347    0.3143 O   0  0  0  0  0  0  0  0  0  0  0  0
    7.4332  -20.0477   -1.5748 H   0  0  0  0  0  0  0  0  0  0  0  0
    8.1998  -20.5528    1.3567 H   0  0  0  0  0  0  0  0  0  0  0  0
    9.8308  -19.8152   -1.1566 H   0  0  0  0  0  0  0  0  0  0  0  0
    8.5039  -17.7800   -1.4750 H   0  0  0  0  0  0  0  0  0  0  0  0
    8.2323  -16.7428   -0.2428 H   0  0  0  0  0  0  0  0  0  0  0  0
    6.8329  -18.3787    0.8390 H   0  0  0  0  0  0  0  0  0  0  0  0
    6.2570  -18.0900   -0.6619 H   0  0  0  0  0  0  0  0  0  0  0  0
    7.4061  -23.0516    1.3396 H   0  0  0  0  0  0  0  0  0  0  0  0
    7.2791  -23.7479   -0.1323 H   0  0  0  0  0  0  0  0  0  0  0  0
    4.8636  -23.7809    0.5919 H   0  0  0  0  0  0  0  0  0  0  0  0
    2.6519  -20.3905   -0.3413 H   0  0  0  0  0  0  0  0  0  0  0  0
    4.7514  -19.1623   -0.6893 H   0  0  0  0  0  0  0  0  0  0  0  0
    8.6094  -22.1361   -1.1235 H   0  0  0  0  0  0  0  0  0  0  0  0
    9.3694  -22.4475    0.2882 H   0  0  0  0  0  0  0  0  0  0  0  0
   11.4070  -20.9340    0.2172 H   0  0  0  0  0  0  0  0  0  0  0  0
   10.7245  -20.4670    1.6257 H   0  0  0  0  0  0  0  0  0  0  0  0
   11.9274  -18.4986    1.5738 H   0  0  0  0  0  0  0  0  0  0  0  0
   12.6520  -18.9913    0.1955 H   0  0  0  0  0  0  0  0  0  0  0  0
   10.9866  -17.9585   -1.1592 H   0  0  0  0  0  0  0  0  0  0  0  0
   10.0593  -18.5213    2.3180 H   0  0  0  0  0  0  0  0  0  0  0  0
    8.4393  -18.5317    2.1151 H   0  0  0  0  0  0  0  0  0  0  0  0
    9.2659  -17.1273    2.0128 H   0  0  0  0  0  0  0  0  0  0  0  0
   10.5338  -15.9551   -0.5196 H   0  0  0  0  0  0  0  0  0  0  0  0
    1.5969  -22.2242    0.1449 H   0  0  0  0  0  0  0  0  0  0  0  0
  1  2  1  0  0  0  0
  2  3  1  0  0  0  0
 10  4  2  0  0  0  0
  4  6  1  0  0  0  0
  4  3  1  0  0  0  0
 11 12  1  0  0  0  0
  5  6  1  0  0  0  0
  6  7  2  0  0  0  0
  7  8  1  0  0  0  0
  8  9  2  0  0  0  0
  9 10  1  0  0  0  0
  3 11  1  0  0  0  0
  5 12  1  0  0  0  0
 11 14  1  0  0  0  0
  1 13  1  0  0  0  0
 13 14  1  0  0  0  0
 15 16  1  0  0  0  0
 16 17  1  0  0  0  0
 17 13  1  0  0  0  0
 14 15  1  0  0  0  0
 13 18  1  1  0  0  0
 17 19  1  1  0  0  0
  8 20  1  0  0  0  0
  3 21  1  6  0  0  0
 11 22  1  1  0  0  0
 14 23  1  6  0  0  0
  1 24  1  0  0  0  0
  1 25  1  0  0  0  0
  2 26  1  0  0  0  0
  2 27  1  0  0  0  0
  5 28  1  0  0  0  0
  5 29  1  0  0  0  0
  7 30  1  0  0  0  0
  9 31  1  0  0  0  0
 10 32  1  0  0  0  0
 12 33  1  0  0  0  0
 12 34  1  0  0  0  0
 15 35  1  0  0  0  0
 15 36  1  0  0  0  0
 16 37  1  0  0  0  0
 16 38  1  0  0  0  0
 17 39  1  0  0  0  0
 18 40  1  0  0  0  0
 18 41  1  0  0  0  0
 18 42  1  0  0  0  0
 19 43  1  0  0  0  0
 20 44  1  0  0  0  0
M  END
>  <Substance ID> (481)
481

>  <Mouse_Female_Canc> (481)
3

>  <SAL> (481)
1

>  <Rat_Male_Canc> (481)
ND

>  <TD50_Rat> (481)
ND

>  <TD50_Mouse> (481)
0.282

>  <Rat_Female_Canc> (481)
ND

>  <Canc> (481)
3

>  <MolWeight> (481)
272.39

>  <Mouse_Male_Canc> (481)
ND

>  <Mouse_Male_NTP> (481)
ND

>  <ChemName> (481)
Estradiol

>  <Rat_Male_NTP> (481)
ND

>  <Reference> (481)
CPDB

>  <Formula> (481)
C18H24O2

>  <SMILES> (481)
C[C@]12C(C3C(C4=C(C=C(C=C4)O)CC3)CC1)CC[C@H]2O

>  <Rat_Female_NTP> (481)
ND

>  <CAS> (481)
50-28-2

>  <Mouse_Female_NTP> (481)
ND

>  <Synonyms> (481)
1,3,5(10)-estratriene-3,17b-diol; 17beta-estradiol; 3,17-dihydroxy-delta(1,3,5-10)-estratriene; 3,17-epidihydroxyestratriene; beta-estradiol; dihydrofolliculin; dihydroxyestrin; Estra-1,3,5(10)-triene-3,17beta-diol; Estradiol-17beta.

$$$$
482


 22 26  0  0  0  0  0  0  0  0999 V2000
   -0.0190    1.5468    0.0105 C   0  0  3  0  0  0  0  0  0  1  0  0
    0.0021   -0.0041    0.0020 C   0  0  3  0  0  0  0  0  0  2  0  0
    1.4657    1.9813   -0.0013 C   0  0  3  0  0  0  0  0  0  3  0  0
   -0.0535    1.9538    1.5073 C   0  0  3  0  0  0  0  0  0  4  0  0
   -1.1505    2.3485   -1.1418 Cl  0  0  0  0  0  0  0  0  0  5  0  0
    1.4980   -0.3980   -0.0144 C   0  0  3  0  0  0  0  0  0  6  0  0
   -0.0212   -0.4282    1.4942 C   0  0  3  0  0  0  0  0  0  7  0  0
   -1.1074   -0.8234   -1.1592 Cl  0  0  0  0  0  0  0  0  0  8  0  0
    1.4654    1.5685    1.4879 C   0  0  3  0  0  0  0  0  0  9  0  0
    2.1907    0.8052   -0.7147 C   0  0  3  0  0  0  0  0  0 10  0  0
    1.9004    3.6695   -0.4616 Cl  0  0  0  0  0  0  0  0  0 11  0  0
   -0.8186    0.7486    2.1573 C   0  0  3  0  0  0  0  0  0 12  0  0
   -0.5522    3.6208    1.9795 Cl  0  0  0  0  0  0  0  0  0 13  0  0
    1.4867   -0.0017    1.4793 C   0  0  3  0  0  0  0  0  0 14  0  0
    1.9782   -2.0686   -0.4932 Cl  0  0  0  0  0  0  0  0  0 15  0  0
   -0.4574   -2.1181    1.9468 Cl  0  0  0  0  0  0  0  0  0 16  0  0
    2.5819    2.4165    2.6216 Cl  0  0  0  0  0  0  0  0  0 17  0  0
    1.8617    0.8105   -2.4875 Cl  0  0  0  0  0  0  0  0  0 18  0  0
    3.9626    0.8282   -0.3817 Cl  0  0  0  0  0  0  0  0  0 19  0  0
   -0.6388    0.7411    3.9513 Cl  0  0  0  0  0  0  0  0  0 20  0  0
   -2.5551    0.7286    1.6726 Cl  0  0  0  0  0  0  0  0  0 21  0  0
    2.6259   -0.8316    2.6037 Cl  0  0  0  0  0  0  0  0  0 22  0  0
  1  2  1  0  0  0  0
  1  3  1  0  0  0  0
  1  4  1  0  0  0  0
  1  5  1  0  0  0  0
  2  6  1  0  0  0  0
  2  7  1  0  0  0  0
  2  8  1  0  0  0  0
  3  9  1  0  0  0  0
  3 10  1  0  0  0  0
  3 11  1  0  0  0  0
  4 12  1  0  0  0  0
  4 13  1  0  0  0  0
  6 14  1  0  0  0  0
  6 15  1  0  0  0  0
  7 16  1  0  0  0  0
  9 17  1  0  0  0  0
 10 18  1  0  0  0  0
 10 19  1  0  0  0  0
 12 20  1  0  0  0  0
 12 21  1  0  0  0  0
 14 22  1  0  0  0  0
  4  9  1  0  0  0  0
  6 10  1  0  0  0  0
  7 12  1  0  0  0  0
  7 14  1  0  0  0  0
  9 14  1  0  0  0  0
M  END
>  <Substance ID> (482)
482

>  <Mouse_Female_Canc> (482)
3

>  <SAL> (482)
1

>  <Rat_Male_Canc> (482)
3

>  <TD50_Rat> (482)
1.77

>  <TD50_Mouse> (482)
1.45

>  <Rat_Female_Canc> (482)
3

>  <Canc> (482)
3

>  <MolWeight> (482)
545.55

>  <Mouse_Male_Canc> (482)
3

>  <Mouse_Male_NTP> (482)
ND

>  <ChemName> (482)
Mirex

>  <Rat_Male_NTP> (482)
CE

>  <Reference> (482)
NTP313 & CPDB

>  <Formula> (482)
C10Cl12

>  <SMILES> (482)
ClC53C1(Cl)C4(Cl)C2(Cl)C1(Cl)C(Cl)(Cl)C5(Cl)C2(Cl)C3(Cl)C4(Cl)Cl

>  <Rat_Female_NTP> (482)
CE

>  <CAS> (482)
2385-85-5

>  <Mouse_Female_NTP> (482)
ND

>  <Synonyms> (482)
1,1a,2,2,3,3a,4,5,5,5a,5b,6-Dodecachloro-octahydro-1,3,4-metheno-1H-cyclobuta[cd]pentalene; 1,1a,2,2,3,3a,4,5,5a,5b,6-dodecachlorooctahydro-1,3,4-metheno-1H-cyclobuta(cd)pentalene; 1,2,3,4,5,5-Hexachloro-1,3-cyclopentadiene dimer; bichlorendo; cg-1283; Cyclopentadiene, 1,2,3,4,5,5-hexachloro-, dimer; Dechlorane; dechlorane 4070; Dechlorane Plus; dodecachlorooctahydro-1,3,4-metheno-1H-cyclobuta(cd)pentalene; dodecachlorooctahydro-1,3,4-metheno-2H-cyclobuta(c,d)pentalene; dodecachloropentacyclodecane; ferriamicide; gc 1283; hexachlorocyclopentadiene dimer; Hexachloropentadiene dimer; hrs 1276; Metheno-1H-cyclobuta(cd)pentalene, 1,1a,2,2,3,3a,4,5,5,5a,5b,6-dodecachlorooctahydro-; perchlorodihomocubane; perchloropentacyclodecane.

$$$$
483


  0  0  0  0  0  0  0  0  0  0999 V2000
M  END
>  <Substance ID> (483)
483

>  <Mouse_Female_Canc> (483)
ND

>  <SAL> (483)
ND

>  <Rat_Male_Canc> (483)
3

>  <TD50_Rat> (483)
283

>  <TD50_Mouse> (483)
ND

>  <Rat_Female_Canc> (483)
ND

>  <Canc> (483)
3

>  <MolWeight> (483)
Unspecified 

>  <Mouse_Male_Canc> (483)
ND

>  <Mouse_Male_NTP> (483)
ND

>  <ChemName> (483)
Amylopectin sulfate

>  <Rat_Male_NTP> (483)
ND

>  <Reference> (483)
CPDB

>  <Formula> (483)
Unspecified 

>  <SMILES> (483)
Unspecified 

>  <Rat_Female_NTP> (483)
ND

>  <CAS> (483)
9047-13-6

>  <Mouse_Female_NTP> (483)
ND

>  <Synonyms> (483)
-

$$$$
484


 24 23  0  0  0  0  0  0  0  0999 V2000
    2.5468  -45.6915    0.9904 Br  0  0  0  0  0  0  0  0  0  0  0  0
    4.4693  -45.4343    1.0286 C   0  0  0  0  0  0  0  0  0  0  0  0
    4.9018  -44.6351   -0.2152 C   0  0  2  0  0  0  0  0  0  0  0  0
    6.4291  -44.4221   -0.2080 C   0  0  1  0  0  0  0  0  0  0  0  0
    7.1451  -45.7896   -0.2079 C   0  0  2  0  0  0  0  0  0  0  0  0
    8.6723  -45.5766   -0.2194 C   0  0  1  0  0  0  0  0  0  0  0  0
    9.1080  -44.7756    1.0221 C   0  0  0  0  0  0  0  0  0  0  0  0
   11.0304  -44.5185    0.9786 Br  0  0  0  0  0  0  0  0  0  0  0  0
    4.2497  -43.3624   -0.2117 O   0  0  0  0  0  0  0  0  0  0  0  0
    6.8061  -43.6831   -1.3720 O   0  0  0  0  0  0  0  0  0  0  0  0
    6.7650  -46.5303   -1.3698 O   0  0  0  0  0  0  0  0  0  0  0  0
    9.3244  -46.8493   -0.2157 O   0  0  0  0  0  0  0  0  0  0  0  0
    4.7222  -44.9297    1.8541 H   0  0  0  0  0  0  0  0  0  0  0  0
    4.9252  -46.3243    1.0286 H   0  0  0  0  0  0  0  0  0  0  0  0
    4.6465  -45.1476   -1.0350 H   0  0  0  0  0  0  0  0  0  0  0  0
    6.6923  -43.9143    0.6122 H   0  0  0  0  0  0  0  0  0  0  0  0
    6.8840  -46.2962    0.6138 H   0  0  0  0  0  0  0  0  0  0  0  0
    8.9255  -45.0653   -1.0406 H   0  0  0  0  0  0  0  0  0  0  0  0
    8.6522  -43.8855    1.0220 H   0  0  0  0  0  0  0  0  0  0  0  0
    8.8573  -45.2789    1.8490 H   0  0  0  0  0  0  0  0  0  0  0  0
    4.5291  -42.8420   -1.0185 H   0  0  0  0  0  0  0  0  0  0  0  0
    7.7961  -43.5424   -1.3719 H   0  0  0  0  0  0  0  0  0  0  0  0
    7.2298  -47.4157   -1.3680 H   0  0  0  0  0  0  0  0  0  0  0  0
   10.3155  -46.7166   -0.2231 H   0  0  0  0  0  0  0  0  0  0  0  0
  1  2  1  0  0  0  0
  2  3  1  0  0  0  0
  3  4  1  0  0  0  0
  4  5  1  0  0  0  0
  5  6  1  0  0  0  0
  6  7  1  0  0  0  0
  7  8  1  0  0  0  0
  3  9  1  0  0  0  0
  4 10  1  0  0  0  0
  5 11  1  0  0  0  0
  6 12  1  0  0  0  0
  2 13  1  0  0  0  0
  2 14  1  0  0  0  0
  3 15  1  0  0  0  0
  4 16  1  0  0  0  0
  5 17  1  0  0  0  0
  6 18  1  0  0  0  0
  7 19  1  0  0  0  0
  7 20  1  0  0  0  0
  9 21  1  0  0  0  0
 10 22  1  0  0  0  0
 11 23  1  0  0  0  0
 12 24  1  0  0  0  0
M  END
>  <Substance ID> (484)
484

>  <Mouse_Female_Canc> (484)
3

>  <SAL> (484)
3

>  <Rat_Male_Canc> (484)
3

>  <TD50_Rat> (484)
27.6

>  <TD50_Mouse> (484)
14.9

>  <Rat_Female_Canc> (484)
3

>  <Canc> (484)
3

>  <MolWeight> (484)
307.97

>  <Mouse_Male_Canc> (484)
3

>  <Mouse_Male_NTP> (484)
ND

>  <ChemName> (484)
Dibromomannitol

>  <Rat_Male_NTP> (484)
ND

>  <Reference> (484)
CPDB

>  <Formula> (484)
C6H12Br2O4

>  <SMILES> (484)
O[C@@H]([C@@H]([C@H](CBr)O)O)[C@H](CBr)O

>  <Rat_Female_NTP> (484)
ND

>  <CAS> (484)
488-41-5

>  <Mouse_Female_NTP> (484)
ND

>  <Synonyms> (484)
1,6-dibromo-1,6-dideoxy-D-mannitol; 1,6-dibromo-1,6-dideoxymannitol; 1,6-dibromo-1,6-D-didesoxymannitol; 1,6-Dibromomannitol; 1,6-dideoxy-1,6-dibromo-D-mannitol; dibromannit; DBM; mannitol, 1,6-dibromo-1,6-dideoxy-, D-; mitobromitol; Mitobronitol; myelobromol; R 54.

$$$$
485


 19 19  0  0  0  0  0  0  0  0999 V2000
    1.9680  -54.1731    0.0005 C   0  0  0  0  0  0  0  0  0  0  0  0
    3.2840  -54.3753   -0.0010 C   0  0  0  0  0  0  0  0  0  0  0  0
    3.7179  -51.9920    0.0003 C   0  0  0  0  0  0  0  0  0  0  0  0
    2.2704  -51.7706    0.0004 C   0  0  0  0  0  0  0  0  0  0  0  0
    4.2011  -53.2330   -0.0002 C   0  0  0  0  0  0  0  0  0  0  0  0
    1.4371  -52.8095    0.0009 C   0  0  0  0  0  0  0  0  0  0  0  0
    5.6852  -53.4630   -0.0003 C   0  0  0  0  0  0  0  0  0  0  0  0
    6.3862  -52.1714    0.0007 N   0  0  0  0  0  0  0  0  0  0  0  0
    7.7686  -52.3927    0.0005 N   0  0  0  0  0  0  0  0  0  0  0  0
    1.3423  -54.9532    0.0012 H   0  0  0  0  0  0  0  0  0  0  0  0
    3.6465  -55.3073   -0.0025 H   0  0  0  0  0  0  0  0  0  0  0  0
    4.3433  -51.2117    0.0006 H   0  0  0  0  0  0  0  0  0  0  0  0
    1.9074  -50.8388    0.0000 H   0  0  0  0  0  0  0  0  0  0  0  0
    0.4487  -52.6577    0.0016 H   0  0  0  0  0  0  0  0  0  0  0  0
    5.9413  -53.9807    0.8160 H   0  0  0  0  0  0  0  0  0  0  0  0
    5.9414  -53.9795   -0.8173 H   0  0  0  0  0  0  0  0  0  0  0  0
    6.1313  -51.6529   -0.8155 H   0  0  0  0  0  0  0  0  0  0  0  0
    8.2472  -51.5147    0.0012 H   0  0  0  0  0  0  0  0  0  0  0  0
    8.0237  -52.9102   -0.8163 H   0  0  0  0  0  0  0  0  0  0  0  0
  1  2  2  0  0  0  0
  3  4  1  0  0  0  0
  1  6  1  0  0  0  0
  2  5  1  0  0  0  0
  5  3  2  0  0  0  0
  4  6  2  0  0  0  0
  5  7  1  0  0  0  0
  7  8  1  0  0  0  0
  8  9  1  0  0  0  0
  1 10  1  0  0  0  0
  2 11  1  0  0  0  0
  3 12  1  0  0  0  0
  4 13  1  0  0  0  0
  6 14  1  0  0  0  0
  7 15  1  0  0  0  0
  7 16  1  0  0  0  0
  8 17  1  0  0  0  0
  9 18  1  0  0  0  0
  9 19  1  0  0  0  0
M  END
>  <Substance ID> (485)
485

>  <Mouse_Female_Canc> (485)
3

>  <SAL> (485)
ND

>  <Rat_Male_Canc> (485)
ND

>  <TD50_Rat> (485)
ND

>  <TD50_Mouse> (485)
85.3

>  <Rat_Female_Canc> (485)
ND

>  <Canc> (485)
3

>  <MolWeight> (485)
195.09

>  <Mouse_Male_Canc> (485)
1

>  <Mouse_Male_NTP> (485)
ND

>  <ChemName> (485)
Benzylhydrazine Dihydrochloride

>  <Rat_Male_NTP> (485)
ND

>  <Reference> (485)
CPDB

>  <Formula> (485)
C7H10N22HCl

>  <SMILES> (485)
Cl.c1ccccc1CNN.Cl

>  <Rat_Female_NTP> (485)
ND

>  <CAS> (485)
20570-96-1

>  <Mouse_Female_NTP> (485)
ND

>  <Synonyms> (485)
-

$$$$
486


 58 59  0  0  0  0  0  0  0  0999 V2000
    9.1507  -53.2697   -0.1183 C   0  0  0  0  0  0  0  0  0  0  0  0
    9.6004  -52.3894   -1.0093 C   0  0  0  0  0  0  0  0  0  0  0  0
    8.7294  -51.1214   -0.9256 C   0  0  0  0  0  0  0  0  0  0  0  0
    8.0209  -52.6975    0.6170 C   0  0  1  0  0  0  0  0  0  0  0  0
    8.2051  -51.2597    0.4715 N   0  0  0  0  0  0  0  0  0  0  0  0
    6.8165  -50.6897    0.6900 C   0  0  0  0  0  0  0  0  0  0  0  0
    5.9180  -51.9697    0.8967 C   0  0  0  0  0  0  0  0  0  0  0  0
    6.6579  -52.9547    0.0029 C   0  0  1  0  0  0  0  0  0  0  0  0
    6.2569  -54.3310    0.1385 O   0  0  0  0  0  0  0  0  0  0  0  0
    7.9463  -53.0207    1.6640 H   0  0  0  0  0  0  0  0  0  0  0  0
    9.6899  -54.6495    0.0987 C   0  0  0  0  0  0  0  0  0  0  0  0
   11.1224  -54.7061    0.0275 O   0  0  0  0  0  0  0  0  0  0  0  0
   11.4833  -56.0543    0.0641 C   0  0  0  0  0  0  0  0  0  0  0  0
    4.9418  -54.5790   -0.2731 C   0  0  0  0  0  0  0  0  0  0  0  0
    4.2331  -53.6751   -0.7466 O   0  0  0  0  0  0  0  0  0  0  0  0
    4.3818  -55.9201   -0.1248 C   0  0  0  0  0  0  0  0  0  0  0  0
    3.1177  -56.1552   -0.4544 C   0  0  0  0  0  0  0  0  0  0  0  0
    5.2499  -57.0278    0.4224 C   0  0  0  0  0  0  0  0  0  0  0  0
   12.9482  -56.4548    0.2061 C   0  0  1  0  0  0  0  0  0  0  0  0
   10.5885  -56.9066    0.0236 O   0  0  0  0  0  0  0  0  0  0  0  0
   13.5141  -56.9175   -1.2222 C   0  0  0  0  0  0  0  0  0  0  0  0
   13.6962  -55.2937    0.5694 O   0  0  0  0  0  0  0  0  0  0  0  0
   13.0863  -57.5358    1.4111 C   0  0  1  0  0  0  0  0  0  0  0  0
    2.5196  -57.5259   -0.2898 C   0  0  0  0  0  0  0  0  0  0  0  0
   12.2680  -58.8555    1.2931 C   0  0  0  0  0  0  0  0  0  0  0  0
   14.4536  -57.8733    1.6807 O   0  0  0  0  0  0  0  0  0  0  0  0
   12.7801  -58.0991   -1.9021 C   0  0  0  0  0  0  0  0  0  0  0  0
   15.0266  -57.2298   -1.1636 C   0  0  0  0  0  0  0  0  0  0  0  0
   10.3731  -52.5276   -1.6287 H   0  0  0  0  0  0  0  0  0  0  0  0
    9.2731  -50.2896   -1.0374 H   0  0  0  0  0  0  0  0  0  0  0  0
    7.9925  -51.1320   -1.6014 H   0  0  0  0  0  0  0  0  0  0  0  0
    6.7948  -50.1038    1.5001 H   0  0  0  0  0  0  0  0  0  0  0  0
    6.5155  -50.1675   -0.1079 H   0  0  0  0  0  0  0  0  0  0  0  0
    5.9099  -52.2677    1.8513 H   0  0  0  0  0  0  0  0  0  0  0  0
    4.9794  -51.8188    0.5862 H   0  0  0  0  0  0  0  0  0  0  0  0
    6.5365  -52.8286   -0.9816 H   0  0  0  0  0  0  0  0  0  0  0  0
    9.4025  -54.9659    1.0027 H   0  0  0  0  0  0  0  0  0  0  0  0
    9.3114  -55.2539   -0.6024 H   0  0  0  0  0  0  0  0  0  0  0  0
    2.5556  -55.4117   -0.8167 H   0  0  0  0  0  0  0  0  0  0  0  0
    4.7229  -57.8767    0.4612 H   0  0  0  0  0  0  0  0  0  0  0  0
    5.5594  -56.7859    1.3421 H   0  0  0  0  0  0  0  0  0  0  0  0
    6.0432  -57.1553   -0.1730 H   0  0  0  0  0  0  0  0  0  0  0  0
   13.3351  -56.1200   -1.7984 H   0  0  0  0  0  0  0  0  0  0  0  0
   14.6614  -55.5357    0.6676 H   0  0  0  0  0  0  0  0  0  0  0  0
   12.6727  -57.0326    2.1699 H   0  0  0  0  0  0  0  0  0  0  0  0
    1.5650  -57.5116   -0.5875 H   0  0  0  0  0  0  0  0  0  0  0  0
    2.5643  -57.7964    0.6719 H   0  0  0  0  0  0  0  0  0  0  0  0
    3.0313  -58.1822   -0.8444 H   0  0  0  0  0  0  0  0  0  0  0  0
   12.4417  -59.4287    2.0938 H   0  0  0  0  0  0  0  0  0  0  0  0
   12.5435  -59.3463    0.4664 H   0  0  0  0  0  0  0  0  0  0  0  0
   11.2927  -58.6403    1.2431 H   0  0  0  0  0  0  0  0  0  0  0  0
   14.4924  -58.5387    2.4261 H   0  0  0  0  0  0  0  0  0  0  0  0
   13.2141  -58.3009   -2.7801 H   0  0  0  0  0  0  0  0  0  0  0  0
   11.8222  -57.8547   -2.0528 H   0  0  0  0  0  0  0  0  0  0  0  0
   12.8293  -58.9059   -1.3132 H   0  0  0  0  0  0  0  0  0  0  0  0
   15.3440  -57.5140   -2.0683 H   0  0  0  0  0  0  0  0  0  0  0  0
   15.1902  -57.9660   -0.5069 H   0  0  0  0  0  0  0  0  0  0  0  0
   15.5255  -56.4116   -0.8777 H   0  0  0  0  0  0  0  0  0  0  0  0
  4  1  1  0  0  0  0
  1  2  2  0  0  0  0
  2  3  1  0  0  0  0
  3  5  1  0  0  0  0
  4  5  1  0  0  0  0
  5  6  1  0  0  0  0
  6  7  1  0  0  0  0
  7  8  1  0  0  0  0
  8  4  1  0  0  0  0
  8  9  1  1  0  0  0
  4 10  1  1  0  0  0
  1 11  1  0  0  0  0
 11 12  1  0  0  0  0
 12 13  1  0  0  0  0
  9 14  1  0  0  0  0
 14 15  2  0  0  0  0
 14 16  1  0  0  0  0
 16 17  2  0  0  0  0
 16 18  1  0  0  0  0
 13 19  1  0  0  0  0
 13 20  2  0  0  0  0
 19 21  1  0  0  0  0
 19 22  1  0  0  0  0
 19 23  1  0  0  0  0
 17 24  1  0  0  0  0
 23 25  1  0  0  0  0
 23 26  1  0  0  0  0
 21 27  1  0  0  0  0
 21 28  1  0  0  0  0
  2 29  1  0  0  0  0
  3 30  1  0  0  0  0
  3 31  1  0  0  0  0
  6 32  1  0  0  0  0
  6 33  1  0  0  0  0
  7 34  1  0  0  0  0
  7 35  1  0  0  0  0
  8 36  1  0  0  0  0
 11 37  1  0  0  0  0
 11 38  1  0  0  0  0
 17 39  1  0  0  0  0
 18 40  1  0  0  0  0
 18 41  1  0  0  0  0
 18 42  1  0  0  0  0
 21 43  1  0  0  0  0
 22 44  1  0  0  0  0
 23 45  1  0  0  0  0
 24 46  1  0  0  0  0
 24 47  1  0  0  0  0
 24 48  1  0  0  0  0
 25 49  1  0  0  0  0
 25 50  1  0  0  0  0
 25 51  1  0  0  0  0
 26 52  1  0  0  0  0
 27 53  1  0  0  0  0
 27 54  1  0  0  0  0
 27 55  1  0  0  0  0
 28 56  1  0  0  0  0
 28 57  1  0  0  0  0
 28 58  1  0  0  0  0
M  END
>  <Substance ID> (486)
486

>  <Mouse_Female_Canc> (486)
ND

>  <SAL> (486)
ND

>  <Rat_Male_Canc> (486)
3

>  <TD50_Rat> (486)
1.91

>  <TD50_Mouse> (486)
ND

>  <Rat_Female_Canc> (486)
ND

>  <Canc> (486)
3

>  <MolWeight> (486)
381.47

>  <Mouse_Male_Canc> (486)
ND

>  <Mouse_Male_NTP> (486)
ND

>  <ChemName> (486)
Symphytine

>  <Rat_Male_NTP> (486)
ND

>  <Reference> (486)
CPDB

>  <Formula> (486)
C20H31NO6

>  <SMILES> (486)
C/C=C(/C(=O)OC1C2N(C\C=C/2COC(=O)C(C(C)O)(C(C)C)O)CC1)C

>  <Rat_Female_NTP> (486)
ND

>  <CAS> (486)
22571-95-5

>  <Mouse_Female_NTP> (486)
ND

>  <Synonyms> (486)
-

$$$$
487


 16 15  0  0  0  0  0  0  0  0999 V2000
    2.2986  -75.7326    0.0007 O   0  0  0  0  0  0  0  0  0  0  0  0
    3.5357  -75.0140    0.0004 C   0  0  0  0  0  0  0  0  0  0  0  0
    4.7089  -76.0077   -0.0015 C   0  0  0  0  0  0  0  0  0  0  0  0
    5.9476  -75.2832   -0.0012 N   0  0  0  0  0  0  0  0  0  0  0  0
    5.9278  -73.9455   -0.0014 N   0  0  0  0  0  0  0  0  0  0  0  0
    6.9240  -73.3216    0.0000 O   0  0  0  0  0  0  0  0  0  0  0  0
    7.1603  -75.9895    0.0006 C   0  0  0  0  0  0  0  0  0  0  0  0
    8.4160  -75.2975    0.0015 N   0  0  0  0  0  0  0  0  0  0  0  0
    7.1472  -77.2255    0.0014 O   0  0  0  0  0  0  0  0  0  0  0  0
    1.5365  -75.0851    0.0019 H   0  0  0  0  0  0  0  0  0  0  0  0
    3.5860  -74.4383   -0.8158 H   0  0  0  0  0  0  0  0  0  0  0  0
    3.5873  -74.4398    0.8175 H   0  0  0  0  0  0  0  0  0  0  0  0
    4.6593  -76.5838    0.8144 H   0  0  0  0  0  0  0  0  0  0  0  0
    4.6585  -76.5816   -0.8189 H   0  0  0  0  0  0  0  0  0  0  0  0
    9.2719  -75.8146    0.0028 H   0  0  0  0  0  0  0  0  0  0  0  0
    8.4359  -74.2977    0.0009 H   0  0  0  0  0  0  0  0  0  0  0  0
  1  2  1  0  0  0  0
  2  3  1  0  0  0  0
  3  4  1  0  0  0  0
  4  5  1  0  0  0  0
  5  6  2  0  0  0  0
  4  7  1  0  0  0  0
  7  8  1  0  0  0  0
  7  9  2  0  0  0  0
  1 10  1  0  0  0  0
  2 11  1  0  0  0  0
  2 12  1  0  0  0  0
  3 13  1  0  0  0  0
  3 14  1  0  0  0  0
  8 15  1  0  0  0  0
  8 16  1  0  0  0  0
M  END
>  <Substance ID> (487)
487

>  <Mouse_Female_Canc> (487)
3

>  <SAL> (487)
3

>  <Rat_Male_Canc> (487)
3

>  <TD50_Rat> (487)
0.131

>  <TD50_Mouse> (487)
0.818

>  <Rat_Female_Canc> (487)
3

>  <Canc> (487)
3

>  <MolWeight> (487)
133.11

>  <Mouse_Male_Canc> (487)
3

>  <Mouse_Male_NTP> (487)
ND

>  <ChemName> (487)
1-(2-Hydroxyethyl)-1-nitrosourea

>  <Rat_Male_NTP> (487)
ND

>  <Reference> (487)
CPDB

>  <Formula> (487)
C3H7N3O3

>  <SMILES> (487)
O=C(N(CCO)N=O)N

>  <Rat_Female_NTP> (487)
ND

>  <CAS> (487)
13743-07-2

>  <Mouse_Female_NTP> (487)
ND

>  <Synonyms> (487)
N-nitroso-2-hydroxyethylurea.

$$$$
488


  9  8  0  0  0  0  0  0  0  0999 V2000
    2.4759  -84.3710    0.0002 C   0  0  0  0  0  0  0  0  0  0  0  0
    3.6819  -83.5306   -0.0007 N   0  0  0  0  0  0  0  0  0  0  0  0
    4.8198  -84.3461   -0.0006 N   0  0  0  0  0  0  0  0  0  0  0  0
    1.6631  -83.7885    0.0002 H   0  0  0  0  0  0  0  0  0  0  0  0
    2.4717  -84.9481    0.8170 H   0  0  0  0  0  0  0  0  0  0  0  0
    2.4712  -84.9490   -0.8158 H   0  0  0  0  0  0  0  0  0  0  0  0
    3.6854  -82.9540   -0.8177 H   0  0  0  0  0  0  0  0  0  0  0  0
    5.6403  -83.7744   -0.0013 H   0  0  0  0  0  0  0  0  0  0  0  0
    4.8163  -84.9242   -0.8167 H   0  0  0  0  0  0  0  0  0  0  0  0
  1  2  1  0  0  0  0
  2  3  1  0  0  0  0
  1  4  1  0  0  0  0
  1  5  1  0  0  0  0
  1  6  1  0  0  0  0
  2  7  1  0  0  0  0
  3  8  1  0  0  0  0
  3  9  1  0  0  0  0
M  END
>  <Substance ID> (488)
488

>  <Mouse_Female_Canc> (488)
3

>  <SAL> (488)
3

>  <Rat_Male_Canc> (488)
ND

>  <TD50_Rat> (488)
ND

>  <TD50_Mouse> (488)
7.55

>  <Rat_Female_Canc> (488)
ND

>  <Canc> (488)
3

>  <MolWeight> (488)
46.07

>  <Mouse_Male_Canc> (488)
3

>  <Mouse_Male_NTP> (488)
ND

>  <ChemName> (488)
Methyl Hydrazine

>  <Rat_Male_NTP> (488)
ND

>  <Reference> (488)
CPDB

>  <Formula> (488)
CH6N2

>  <SMILES> (488)
CNN

>  <Rat_Female_NTP> (488)
ND

>  <CAS> (488)
60-34-4

>  <Mouse_Female_NTP> (488)
ND

>  <Synonyms> (488)
1-Methyl-Hydrazine; hydrazomethane; Methylhydrazine(mono); MMH; Monomethyl Hydrazine.

$$$$
489


 32 32  0  0  0  0  0  0  0  0999 V2000
    0.3802    1.2480    0.2546 C   0  0  0  0  0  0  0  0  0  1  0  0
    0.1938   -0.2373   -0.0750 C   0  0  0  0  0  0  0  0  0  2  0  0
    1.8811    1.5444    0.3510 C   0  0  0  0  0  0  0  0  0  3  0  0
    0.9590   -1.0757    0.9515 C   0  0  0  0  0  0  0  0  0  4  0  0
    2.5186    0.5713    1.3453 C   0  0  0  0  0  0  0  0  0  5  0  0
    2.3503   -0.7684    0.8857 O   0  0  0  0  0  0  0  0  0  6  0  0
    0.7515   -2.5615    0.6511 C   0  0  0  0  0  0  0  0  0  7  0  0
    1.8925    0.7179    2.6214 O   0  0  0  0  0  0  0  0  0  8  0  0
    1.4229   -3.4169    1.7696 ?   0  0  0  0  0  0  0  0  0  9  0  0
    2.8649    0.3992    3.5915 ?   0  0  0  0  0  0  0  0  0 10  0  0
   -1.1954   -0.5681   -0.0224 O   0  0  0  0  0  0  0  0  0 11  0  0
    2.0755    2.8859    0.8034 O   0  0  0  0  0  0  0  0  0 12  0  0
   -0.2005    2.0452   -0.7795 O   0  0  0  0  0  0  0  0  0 13  0  0
   -0.7809    3.2817   -0.1082 S   0  0  0  0  0  0  0  0  0 14  0  0
    0.3481    4.1348    0.2289 O   0  0  0  0  0  0  0  0  0 15  0  0
   -1.6693    3.8988   -1.0809 O   0  0  0  0  0  0  0  0  0 16  0  0
   -1.4920    2.8137    1.0713 O   0  0  0  0  0  0  0  0  0 17  0  0
    3.3225    3.4093    0.1053 S   0  0  0  0  0  0  0  0  0 18  0  0
    4.3193    2.3539    0.1983 O   0  0  0  0  0  0  0  0  0 19  0  0
    2.9380    3.6871   -1.2698 O   0  0  0  0  0  0  0  0  0 20  0  0
    3.7210    4.6110    0.8217 O   0  0  0  0  0  0  0  0  0 21  0  0
   -1.6434   -0.8150   -1.4558 S   0  0  0  0  0  0  0  0  0 22  0  0
   -1.1292    0.2941   -2.2441 O   0  0  0  0  0  0  0  0  0 23  0  0
   -1.0666   -2.0900   -1.8530 O   0  0  0  0  0  0  0  0  0 24  0  0
   -3.0975   -0.8493   -1.4320 O   0  0  0  0  0  0  0  0  0 25  0  0
   -0.0992    1.4743    1.2070 H   0  0  0  0  0  0  0  0  0 26  0  0
    0.5810   -0.4408   -1.0734 H   0  0  0  0  0  0  0  0  0 27  0  0
    2.3414    1.4183   -0.6289 H   0  0  0  0  0  0  0  0  0 28  0  0
    0.5858   -0.8536    1.9513 H   0  0  0  0  0  0  0  0  0 29  0  0
    3.5823    0.7912    1.4362 H   0  0  0  0  0  0  0  0  0 30  0  0
   -0.3159   -2.7798    0.6181 H   0  0  0  0  0  0  0  0  0 31  0  0
    1.2019   -2.8039   -0.3114 H   0  0  0  0  0  0  0  0  0 32  0  0
  1  2  1  0  0  0  0
  1  3  1  0  0  0  0
  1 13  1  0  0  0  0
  1 26  1  0  0  0  0
  2  4  1  0  0  0  0
  2 11  1  0  0  0  0
  2 27  1  0  0  0  0
  3  5  1  0  0  0  0
  3 12  1  0  0  0  0
  3 28  1  0  0  0  0
  4  6  1  0  0  0  0
  4  7  1  0  0  0  0
  4 29  1  0  0  0  0
  5  8  1  0  0  0  0
  5  6  1  0  0  0  0
  5 30  1  0  0  0  0
  7  9  1  0  0  0  0
  7 31  1  0  0  0  0
  7 32  1  0  0  0  0
  8 10  1  0  0  0  0
 11 22  1  0  0  0  0
 12 18  1  0  0  0  0
 13 14  1  0  0  0  0
 14 15  1  0  0  0  0
 14 16  2  0  0  0  0
 14 17  2  0  0  0  0
 18 19  2  0  0  0  0
 18 20  1  0  0  0  0
 18 21  2  0  0  0  0
 22 23  2  0  0  0  0
 22 24  1  0  0  0  0
 22 25  2  0  0  0  0
M  END
>  <Substance ID> (489)
489

>  <Mouse_Female_Canc> (489)
ND

>  <SAL> (489)
ND

>  <Rat_Male_Canc> (489)
3

>  <TD50_Rat> (489)
196

>  <TD50_Mouse> (489)
ND

>  <Rat_Female_Canc> (489)
3

>  <Canc> (489)
3

>  <MolWeight> (489)
500000

>  <Mouse_Male_Canc> (489)
ND

>  <Mouse_Male_NTP> (489)
ND

>  <ChemName> (489)
Dextran sulfate sodium (ds-m-1)

>  <Rat_Male_NTP> (489)
ND

>  <Reference> (489)
CPDB

>  <Formula> (489)
Unspecified 

>  <SMILES> (489)
Unspecified 

>  <Rat_Female_NTP> (489)
ND

>  <CAS> (489)
9011-18-1

>  <Mouse_Female_NTP> (489)
ND

>  <Synonyms> (489)
DS-M-1; DST-H; KMDS-H; Dextran, hydrogen sulfate, sodium salt; Dextran sulfate sodium salt; Dextran sulfate sodium (dst-h); Dextran sulfate sodium (kmds-h).

$$$$
490


 97103  0  0  0  0  0  0  0  0999 V2000
   29.4238   -7.5984    0.0282 C   0  0  0  0  0  0  0  0  0  0  0  0
   29.4659   -8.9333    0.0819 C   0  0  0  0  0  0  0  0  0  0  0  0
   30.7563   -9.6068    0.0726 C   0  0  0  0  0  0  0  0  0  0  0  0
   30.6818   -6.8212   -0.1323 C   0  0  0  0  0  0  0  0  0  0  0  0
   31.8573   -7.4562   -0.2224 C   0  0  0  0  0  0  0  0  0  0  0  0
   31.8905   -8.9207   -0.0668 C   0  0  0  0  0  0  0  0  0  0  0  0
   33.1976   -9.6801   -0.0156 C   0  0  0  0  0  0  0  0  0  0  0  0
   34.4498   -8.8423   -0.3955 C   0  0  0  0  0  0  0  0  0  0  0  0
   33.1612   -6.6915   -0.5193 C   0  0  2  0  0  0  0  0  0  0  0  0
   34.3599   -7.4145    0.1561 C   0  0  1  0  0  0  0  0  0  0  0  0
   34.4480   -4.4560   -0.3820 C   0  0  0  0  0  0  0  0  0  0  0  0
   33.0794   -5.1993   -0.0741 C   0  0  0  0  0  0  0  0  0  0  0  0
   35.5449   -5.1870    0.4262 C   0  0  1  0  0  0  0  0  0  0  0  0
   35.7032   -6.6075   -0.0865 C   0  0  2  0  0  0  0  0  0  0  0  0
   36.9304   -7.1381    0.7377 C   0  0  0  0  0  0  0  0  0  0  0  0
   37.6313   -5.7863    1.2568 C   0  0  0  0  0  0  0  0  0  0  0  0
   37.0105   -4.6701    0.3776 C   0  0  1  0  0  0  0  0  0  0  0  0
   35.1413   -5.1398    1.9239 C   0  0  0  0  0  0  0  0  0  0  0  0
   37.1094   -3.3689    0.9589 O   0  0  0  0  0  0  0  0  0  0  0  0
   37.7405   -4.6261   -0.8993 C   0  0  0  0  0  0  0  0  0  0  0  0
   38.4145   -4.5656   -1.8988 C   0  0  0  0  0  0  0  0  0  0  0  0
   28.2893   -9.7169    0.1274 O   0  0  0  0  0  0  0  0  0  0  0  0
   27.1059   -8.9110    0.0669 C   0  0  0  0  0  0  0  0  0  0  0  0
   33.3251   -6.6962   -1.5945 H   0  0  0  0  0  0  0  0  0  0  0  0
   34.1830   -7.4454    1.2322 H   0  0  0  0  0  0  0  0  0  0  0  0
   35.9839   -6.5388   -1.1590 H   0  0  0  0  0  0  0  0  0  0  0  0
   28.5469   -7.1225    0.0958 H   0  0  0  0  0  0  0  0  0  0  0  0
   30.7925  -10.6011    0.1724 H   0  0  0  0  0  0  0  0  0  0  0  0
   30.6497   -5.8225   -0.1730 H   0  0  0  0  0  0  0  0  0  0  0  0
   33.3226  -10.0225    0.9156 H   0  0  0  0  0  0  0  0  0  0  0  0
   33.1348  -10.4512   -0.6492 H   0  0  0  0  0  0  0  0  0  0  0  0
   35.2633   -9.2853   -0.0188 H   0  0  0  0  0  0  0  0  0  0  0  0
   34.5231   -8.8015   -1.3920 H   0  0  0  0  0  0  0  0  0  0  0  0
   34.3913   -3.4989   -0.0978 H   0  0  0  0  0  0  0  0  0  0  0  0
   34.6524   -4.5023   -1.3598 H   0  0  0  0  0  0  0  0  0  0  0  0
   32.3394   -4.7469   -0.5717 H   0  0  0  0  0  0  0  0  0  0  0  0
   32.8955   -5.1579    0.9080 H   0  0  0  0  0  0  0  0  0  0  0  0
   37.5517   -7.6650    0.1577 H   0  0  0  0  0  0  0  0  0  0  0  0
   36.6296   -7.7042    1.5053 H   0  0  0  0  0  0  0  0  0  0  0  0
   37.4273   -5.6303    2.2232 H   0  0  0  0  0  0  0  0  0  0  0  0
   38.6220   -5.8290    1.1274 H   0  0  0  0  0  0  0  0  0  0  0  0
   35.8355   -5.6068    2.4716 H   0  0  0  0  0  0  0  0  0  0  0  0
   34.2591   -5.5946    2.0464 H   0  0  0  0  0  0  0  0  0  0  0  0
   35.0689   -4.1874    2.2203 H   0  0  0  0  0  0  0  0  0  0  0  0
   36.6930   -2.6971    0.3463 H   0  0  0  0  0  0  0  0  0  0  0  0
   38.9729   -4.5155   -2.7269 H   0  0  0  0  0  0  0  0  0  0  0  0
   26.2987   -9.5002    0.1016 H   0  0  0  0  0  0  0  0  0  0  0  0
   27.1007   -8.3891   -0.7861 H   0  0  0  0  0  0  0  0  0  0  0  0
   27.0914   -8.2806    0.8431 H   0  0  0  0  0  0  0  0  0  0  0  0
   42.6190   -7.3847    0.3842 C   0  0  0  0  0  0  0  0  0  0  0  0
   42.6426   -8.8465    0.1024 C   0  0  0  0  0  0  0  0  0  0  0  0
   43.9210   -9.6041    0.1640 C   0  0  0  0  0  0  0  0  0  0  0  0
   43.8441   -6.6504   -0.2264 C   0  0  0  0  0  0  0  0  0  0  0  0
   45.1543   -7.4482   -0.2464 C   0  0  0  0  0  0  0  0  0  0  0  0
   45.1759   -8.7820   -0.0453 C   0  0  0  0  0  0  0  0  0  0  0  0
   46.4768   -9.5782   -0.0342 C   0  0  0  0  0  0  0  0  0  0  0  0
   47.7422   -8.7983   -0.4469 C   0  0  0  0  0  0  0  0  0  0  0  0
   46.4660   -6.6882   -0.5499 C   0  0  2  0  0  0  0  0  0  0  0  0
   47.6661   -7.3971    0.1143 C   0  0  1  0  0  0  0  0  0  0  0  0
   47.7169   -4.4284   -0.3583 C   0  0  0  0  0  0  0  0  0  0  0  0
   46.3661   -5.2005   -0.0859 C   0  0  0  0  0  0  0  0  0  0  0  0
   48.8192   -5.1662    0.4348 C   0  0  1  0  0  0  0  0  0  0  0  0
   49.0052   -6.5713   -0.1169 C   0  0  2  0  0  0  0  0  0  0  0  0
   50.2325   -7.0978    0.7050 C   0  0  0  0  0  0  0  0  0  0  0  0
   50.9333   -5.7430    1.2335 C   0  0  0  0  0  0  0  0  0  0  0  0
   50.2603   -4.5996    0.4150 C   0  0  1  0  0  0  0  0  0  0  0  0
   41.5884   -9.4640   -0.0976 O   0  0  0  0  0  0  0  0  0  0  0  0
   48.4122   -5.1821    1.9301 C   0  0  0  0  0  0  0  0  0  0  0  0
   50.3092   -3.3335    1.0737 O   0  0  0  0  0  0  0  0  0  0  0  0
   50.9649   -4.4265   -0.8646 C   0  0  0  0  0  0  0  0  0  0  0  0
   51.6172   -4.2623   -1.8667 C   0  0  0  0  0  0  0  0  0  0  0  0
   47.4885   -7.4459    1.1905 H   0  0  0  0  0  0  0  0  0  0  0  0
   46.6261   -6.6817   -1.6258 H   0  0  0  0  0  0  0  0  0  0  0  0
   49.2898   -6.4799   -1.1842 H   0  0  0  0  0  0  0  0  0  0  0  0
   41.7837   -6.9953   -0.0040 H   0  0  0  0  0  0  0  0  0  0  0  0
   42.6221   -7.2476    1.3748 H   0  0  0  0  0  0  0  0  0  0  0  0
   43.9811  -10.0343    1.0648 H   0  0  0  0  0  0  0  0  0  0  0  0
   43.8945  -10.3113   -0.5425 H   0  0  0  0  0  0  0  0  0  0  0  0
   43.6179   -6.4073   -1.1697 H   0  0  0  0  0  0  0  0  0  0  0  0
   43.9995   -5.8176    0.3049 H   0  0  0  0  0  0  0  0  0  0  0  0
   46.6178   -9.9231    0.8938 H   0  0  0  0  0  0  0  0  0  0  0  0
   46.3713  -10.3477   -0.6639 H   0  0  0  0  0  0  0  0  0  0  0  0
   48.5524   -9.2599   -0.0856 H   0  0  0  0  0  0  0  0  0  0  0  0
   47.7989   -8.7566   -1.4445 H   0  0  0  0  0  0  0  0  0  0  0  0
   47.6419   -3.4819   -0.0444 H   0  0  0  0  0  0  0  0  0  0  0  0
   47.9293   -4.4402   -1.3354 H   0  0  0  0  0  0  0  0  0  0  0  0
   45.6264   -4.7512   -0.5868 H   0  0  0  0  0  0  0  0  0  0  0  0
   46.1682   -5.1767    0.8940 H   0  0  0  0  0  0  0  0  0  0  0  0
   50.8559   -7.6201    0.1231 H   0  0  0  0  0  0  0  0  0  0  0  0
   49.9333   -7.6682    1.4699 H   0  0  0  0  0  0  0  0  0  0  0  0
   50.7678   -5.6198    2.2120 H   0  0  0  0  0  0  0  0  0  0  0  0
   51.9181   -5.7661    1.0618 H   0  0  0  0  0  0  0  0  0  0  0  0
   49.1139   -5.6561    2.4620 H   0  0  0  0  0  0  0  0  0  0  0  0
   47.5385   -5.6576    2.0332 H   0  0  0  0  0  0  0  0  0  0  0  0
   48.3213   -4.2429    2.2613 H   0  0  0  0  0  0  0  0  0  0  0  0
   49.8643   -2.6430    0.5034 H   0  0  0  0  0  0  0  0  0  0  0  0
   52.1577   -4.1262   -2.6970 H   0  0  0  0  0  0  0  0  0  0  0  0
  1  2  2  0  0  0  0
  1  4  1  0  0  0  0
  2  3  1  0  0  0  0
  3  6  2  0  0  0  0
  5  4  2  0  0  0  0
  5  6  1  0  0  0  0
  5  9  1  0  0  0  0
  6  7  1  0  0  0  0
  7  8  1  0  0  0  0
  8 10  1  0  0  0  0
  9 10  1  0  0  0  0
  9 12  1  0  0  0  0
 10 14  1  0  0  0  0
 13 11  1  0  0  0  0
 11 12  1  0  0  0  0
 13 14  1  0  0  0  0
 15 16  1  0  0  0  0
 16 17  1  0  0  0  0
 17 13  1  0  0  0  0
 14 15  1  0  0  0  0
 13 18  1  1  0  0  0
 17 19  1  1  0  0  0
 17 20  1  6  0  0  0
 20 21  3  0  0  0  0
  2 22  1  0  0  0  0
 22 23  1  0  0  0  0
  9 24  1  6  0  0  0
 10 25  1  1  0  0  0
 14 26  1  6  0  0  0
  1 27  1  0  0  0  0
  3 28  1  0  0  0  0
  4 29  1  0  0  0  0
  7 30  1  0  0  0  0
  7 31  1  0  0  0  0
  8 32  1  0  0  0  0
  8 33  1  0  0  0  0
 11 34  1  0  0  0  0
 11 35  1  0  0  0  0
 12 36  1  0  0  0  0
 12 37  1  0  0  0  0
 15 38  1  0  0  0  0
 15 39  1  0  0  0  0
 16 40  1  0  0  0  0
 16 41  1  0  0  0  0
 18 42  1  0  0  0  0
 18 43  1  0  0  0  0
 18 44  1  0  0  0  0
 19 45  1  0  0  0  0
 21 46  1  0  0  0  0
 23 47  1  0  0  0  0
 23 48  1  0  0  0  0
 23 49  1  0  0  0  0
 50 51  1  0  0  0  0
 50 53  1  0  0  0  0
 51 52  1  0  0  0  0
 52 55  1  0  0  0  0
 54 53  1  0  0  0  0
 54 55  2  0  0  0  0
 54 58  1  0  0  0  0
 55 56  1  0  0  0  0
 56 57  1  0  0  0  0
 57 59  1  0  0  0  0
 58 59  1  0  0  0  0
 58 61  1  0  0  0  0
 59 63  1  0  0  0  0
 62 60  1  0  0  0  0
 60 61  1  0  0  0  0
 62 63  1  0  0  0  0
 64 65  1  0  0  0  0
 65 66  1  0  0  0  0
 66 62  1  0  0  0  0
 63 64  1  0  0  0  0
 51 67  2  0  0  0  0
 62 68  1  1  0  0  0
 66 69  1  1  0  0  0
 66 70  1  6  0  0  0
 70 71  3  0  0  0  0
 59 72  1  1  0  0  0
 58 73  1  6  0  0  0
 63 74  1  6  0  0  0
 50 75  1  0  0  0  0
 50 76  1  0  0  0  0
 52 77  1  0  0  0  0
 52 78  1  0  0  0  0
 53 79  1  0  0  0  0
 53 80  1  0  0  0  0
 56 81  1  0  0  0  0
 56 82  1  0  0  0  0
 57 83  1  0  0  0  0
 57 84  1  0  0  0  0
 60 85  1  0  0  0  0
 60 86  1  0  0  0  0
 61 87  1  0  0  0  0
 61 88  1  0  0  0  0
 64 89  1  0  0  0  0
 64 90  1  0  0  0  0
 65 91  1  0  0  0  0
 65 92  1  0  0  0  0
 68 93  1  0  0  0  0
 68 94  1  0  0  0  0
 68 95  1  0  0  0  0
 69 96  1  0  0  0  0
 71 97  1  0  0  0  0
M  END
>  <Substance ID> (490)
490

>  <Mouse_Female_Canc> (490)
3

>  <SAL> (490)
ND

>  <Rat_Male_Canc> (490)
ND

>  <TD50_Rat> (490)
ND

>  <TD50_Mouse> (490)
0.279

>  <Rat_Female_Canc> (490)
ND

>  <Canc> (490)
3

>  <MolWeight> (490)
298.42-310.43

>  <Mouse_Male_Canc> (490)
1

>  <Mouse_Male_NTP> (490)
ND

>  <ChemName> (490)
Enovid

>  <Rat_Male_NTP> (490)
ND

>  <Reference> (490)
CPDB

>  <Formula> (490)
C20H26O2.C21H26O2 

>  <SMILES> (490)
O=C4CCC\1=C(\CC[C@@H]2[C@@H]/1CC[C@]3([C@H]2CC[C@]3(C#C)O)C)C4.O(c1cc2c(cc1)[C@H]3CC[C@]4(C)[C@@](C#C)(O)CC[C@H]4[C@@H]3CC2)C

>  <Rat_Female_NTP> (490)
ND

>  <CAS> (490)
8015-30-3

>  <Mouse_Female_NTP> (490)
ND

>  <Synonyms> (490)
Enavid; Norethynodrel/mestranol [25:1]; Norethynodrel/mestranol [66:1].

$$$$
491
 

 30 29  0  0  0  0  0  0  0  0999 V2000
   35.1030  -24.1530    0.3383 N   0  0  0  0  0  0  0  0  0  0  0  0
   36.4268  -24.3125   -0.0802 N   0  0  0  0  0  0  0  0  0  0  0  0
   34.3256  -25.3423   -0.2055 C   0  0  0  0  0  0  0  0  0  0  0  0
   32.8829  -25.5057    0.3451 C   0  0  0  0  0  0  0  0  0  0  0  0
   32.1331  -26.6153   -0.3928 C   0  0  0  0  0  0  0  0  0  0  0  0
   30.6834  -26.6564    0.1245 C   0  0  0  0  0  0  0  0  0  0  0  0
   34.6304  -22.8131   -0.2056 C   0  0  0  0  0  0  0  0  0  0  0  0
   33.2679  -22.3116    0.3451 C   0  0  0  0  0  0  0  0  0  0  0  0
   32.8030  -21.0557   -0.3928 C   0  0  0  0  0  0  0  0  0  0  0  0
   31.4046  -20.6714    0.1246 C   0  0  0  0  0  0  0  0  0  0  0  0
   36.9776  -23.5489    0.2565 H   0  0  0  0  0  0  0  0  0  0  0  0
   36.4609  -24.3324   -1.0794 H   0  0  0  0  0  0  0  0  0  0  0  0
   34.2669  -25.2438   -1.1989 H   0  0  0  0  0  0  0  0  0  0  0  0
   34.8365  -26.1724    0.0180 H   0  0  0  0  0  0  0  0  0  0  0  0
   32.9288  -25.7338    1.3176 H   0  0  0  0  0  0  0  0  0  0  0  0
   32.3892  -24.6441    0.2272 H   0  0  0  0  0  0  0  0  0  0  0  0
   32.1350  -26.4276   -1.3750 H   0  0  0  0  0  0  0  0  0  0  0  0
   32.5773  -27.4944   -0.2201 H   0  0  0  0  0  0  0  0  0  0  0  0
   30.1800  -27.3785   -0.3499 H   0  0  0  0  0  0  0  0  0  0  0  0
   30.2425  -25.7753   -0.0474 H   0  0  0  0  0  0  0  0  0  0  0  0
   30.6847  -26.8419    1.1071 H   0  0  0  0  0  0  0  0  0  0  0  0
   35.3239  -22.1281    0.0178 H   0  0  0  0  0  0  0  0  0  0  0  0
   34.5499  -22.8949   -1.1989 H   0  0  0  0  0  0  0  0  0  0  0  0
   32.5836  -23.0313    0.2273 H   0  0  0  0  0  0  0  0  0  0  0  0
   33.3667  -22.1009    1.3176 H   0  0  0  0  0  0  0  0  0  0  0  0
   33.4433  -20.3072   -0.2202 H   0  0  0  0  0  0  0  0  0  0  0  0
   32.7601  -21.2386   -1.3750 H   0  0  0  0  0  0  0  0  0  0  0  0
   31.0872  -19.8503   -0.3498 H   0  0  0  0  0  0  0  0  0  0  0  0
   31.4501  -20.4914    1.1073 H   0  0  0  0  0  0  0  0  0  0  0  0
   30.7671  -21.4225   -0.0472 H   0  0  0  0  0  0  0  0  0  0  0  0
  1  2  1  0  0  0  0
  1  3  1  0  0  0  0
  3  4  1  0  0  0  0
  4  5  1  0  0  0  0
  5  6  1  0  0  0  0
  1  7  1  0  0  0  0
  7  8  1  0  0  0  0
  8  9  1  0  0  0  0
  9 10  1  0  0  0  0
  2 11  1  0  0  0  0
  2 12  1  0  0  0  0
  3 13  1  0  0  0  0
  3 14  1  0  0  0  0
  4 15  1  0  0  0  0
  4 16  1  0  0  0  0
  5 17  1  0  0  0  0
  5 18  1  0  0  0  0
  6 19  1  0  0  0  0
  6 20  1  0  0  0  0
  6 21  1  0  0  0  0
  7 22  1  0  0  0  0
  7 23  1  0  0  0  0
  8 24  1  0  0  0  0
  8 25  1  0  0  0  0
  9 26  1  0  0  0  0
  9 27  1  0  0  0  0
 10 28  1  0  0  0  0
 10 29  1  0  0  0  0
 10 30  1  0  0  0  0
M  END
>  <Substance ID> (491)
491

>  <Mouse_Female_Canc> (491)
3

>  <SAL> (491)
1

>  <Rat_Male_Canc> (491)
ND

>  <TD50_Rat> (491)
ND

>  <TD50_Mouse> (491)
45.20

>  <Rat_Female_Canc> (491)
ND

>  <Canc> (491)
3

>  <MolWeight> (491)
144.26

>  <Mouse_Male_Canc> (491)
3

>  <Mouse_Male_NTP> (491)
ND

>  <ChemName> (491)
1,1-Di-n-butylhydrazine

>  <Rat_Male_NTP> (491)
ND

>  <Reference> (491)
CPDB

>  <Formula> (491)
C8H20N2

>  <SMILES> (491)
NN(CCCC)CCCC

>  <Rat_Female_NTP> (491)
ND

>  <CAS> (491)
7422-80-2

>  <Mouse_Female_NTP> (491)
ND

>  <Synonyms> (491)
Hydrazine, 1,1-dibutyl-.

$$$$
492


 16 16  0  0  0  0  0  0  0  0999 V2000
   31.3541  -34.0024   -0.0005 C   0  0  0  0  0  0  0  0  0  0  0  0
   32.6791  -34.1354   -0.0009 C   0  0  0  0  0  0  0  0  0  0  0  0
   32.9867  -31.7321    0.0005 C   0  0  0  0  0  0  0  0  0  0  0  0
   31.5300  -31.5863    0.0000 C   0  0  0  0  0  0  0  0  0  0  0  0
   33.5341  -32.9462    0.0001 C   0  0  0  0  0  0  0  0  0  0  0  0
   30.7523  -32.6676   -0.0003 C   0  0  0  0  0  0  0  0  0  0  0  0
   34.9229  -33.0852    0.0003 N   0  0  0  0  0  0  0  0  0  0  0  0
   35.6990  -32.0055   -0.0013 N   0  0  0  0  0  0  0  0  0  0  0  0
   30.7701  -34.8141   -0.0003 H   0  0  0  0  0  0  0  0  0  0  0  0
   33.0902  -35.0470   -0.0019 H   0  0  0  0  0  0  0  0  0  0  0  0
   33.5706  -30.9202    0.0012 H   0  0  0  0  0  0  0  0  0  0  0  0
   31.1187  -30.6748   -0.0001 H   0  0  0  0  0  0  0  0  0  0  0  0
   29.7573  -32.5678   -0.0004 H   0  0  0  0  0  0  0  0  0  0  0  0
   35.3343  -33.9967    0.0017 H   0  0  0  0  0  0  0  0  0  0  0  0
   36.6940  -32.1049   -0.0011 H   0  0  0  0  0  0  0  0  0  0  0  0
   35.2876  -31.0940   -0.0027 H   0  0  0  0  0  0  0  0  0  0  0  0
  1  2  2  0  0  0  0
  3  4  1  0  0  0  0
  1  6  1  0  0  0  0
  2  5  1  0  0  0  0
  5  3  2  0  0  0  0
  4  6  2  0  0  0  0
  5  7  1  0  0  0  0
  7  8  1  0  0  0  0
  1  9  1  0  0  0  0
  2 10  1  0  0  0  0
  3 11  1  0  0  0  0
  4 12  1  0  0  0  0
  6 13  1  0  0  0  0
  7 14  1  0  0  0  0
  8 15  1  0  0  0  0
  8 16  1  0  0  0  0
M  END
>  <Substance ID> (492)
492

>  <Mouse_Female_Canc> (492)
3

>  <SAL> (492)
3

>  <Rat_Male_Canc> (492)
ND

>  <TD50_Rat> (492)
ND

>  <TD50_Mouse> (492)
71.3

>  <Rat_Female_Canc> (492)
ND

>  <Canc> (492)
3

>  <MolWeight> (492)
144.64

>  <Mouse_Male_Canc> (492)
3

>  <Mouse_Male_NTP> (492)
ND

>  <ChemName> (492)
Phenylhydrazine Hydrochloride

>  <Rat_Male_NTP> (492)
ND

>  <Reference> (492)
CPDB

>  <Formula> (492)
C6H8N2.HCl

>  <SMILES> (492)
NNC1=CC=CC=C1.Cl

>  <Rat_Female_NTP> (492)
ND

>  <CAS> (492)
59-88-1

>  <Mouse_Female_NTP> (492)
ND

>  <Synonyms> (492)
Phenylhydrazinium chloride; Phenylhydrazine monohydrochloride.

$$$$
493


 22 23  0  0  0  0  0  0  0  0999 V2000
   30.7042  -41.5366   -0.0044 C   0  0  0  0  0  0  0  0  0  0  0  0
   32.0361  -41.5173   -0.0061 C   0  0  0  0  0  0  0  0  0  0  0  0
   32.0521  -39.0996    0.0018 C   0  0  0  0  0  0  0  0  0  0  0  0
   30.5978  -39.1178    0.0012 C   0  0  0  0  0  0  0  0  0  0  0  0
   32.7493  -40.2345   -0.0016 C   0  0  0  0  0  0  0  0  0  0  0  0
   29.9509  -40.2797   -0.0010 C   0  0  0  0  0  0  0  0  0  0  0  0
   34.2296  -40.2182   -0.0014 C   0  0  0  0  0  0  0  0  0  0  0  0
   34.8880  -41.3775   -0.0008 C   0  0  0  0  0  0  0  0  0  0  0  0
   37.0395  -40.2555    0.0019 C   0  0  0  0  0  0  0  0  0  0  0  0
   36.3361  -38.9769    0.0031 C   0  0  0  0  0  0  0  0  0  0  0  0
   36.3537  -41.3966    0.0007 C   0  0  0  0  0  0  0  0  0  0  0  0
   35.0062  -38.9402    0.0017 C   0  0  0  0  0  0  0  0  0  0  0  0
   34.3789  -37.6966    0.0029 O   0  5  0  0  0  0  0  0  0  0  0  0
   30.2175  -42.4102   -0.0053 H   0  0  0  0  0  0  0  0  0  0  0  0
   32.5493  -42.3756   -0.0104 H   0  0  0  0  0  0  0  0  0  0  0  0
   32.5348  -38.2238    0.0049 H   0  0  0  0  0  0  0  0  0  0  0  0
   30.0857  -38.2589    0.0024 H   0  0  0  0  0  0  0  0  0  0  0  0
   28.9510  -40.2957   -0.0005 H   0  0  0  0  0  0  0  0  0  0  0  0
   34.3793  -42.2384   -0.0015 H   0  0  0  0  0  0  0  0  0  0  0  0
   38.0393  -40.2747    0.0019 H   0  0  0  0  0  0  0  0  0  0  0  0
   36.8568  -38.1232    0.0049 H   0  0  0  0  0  0  0  0  0  0  0  0
   36.8404  -42.2702    0.0009 H   0  0  0  0  0  0  0  0  0  0  0  0
  1  2  2  0  0  0  0
  3  4  1  0  0  0  0
  1  6  1  0  0  0  0
  2  5  1  0  0  0  0
  5  3  2  0  0  0  0
  4  6  2  0  0  0  0
  5  7  1  0  0  0  0
  7  8  2  0  0  0  0
  9 10  1  0  0  0  0
  7 12  1  0  0  0  0
  8 11  1  0  0  0  0
 11  9  2  0  0  0  0
 10 12  2  0  0  0  0
 12 13  1  0  0  0  0
  1 14  1  0  0  0  0
  2 15  1  0  0  0  0
  3 16  1  0  0  0  0
  4 17  1  0  0  0  0
  6 18  1  0  0  0  0
  8 19  1  0  0  0  0
  9 20  1  0  0  0  0
 10 21  1  0  0  0  0
 11 22  1  0  0  0  0
M  END
>  <Substance ID> (493)
493

>  <Mouse_Female_Canc> (493)
1

>  <SAL> (493)
1

>  <Rat_Male_Canc> (493)
3

>  <TD50_Rat> (493)
545

>  <TD50_Mouse> (493)
NP

>  <Rat_Female_Canc> (493)
3

>  <Canc> (493)
3

>  <MolWeight> (493)
192.19

>  <Mouse_Male_Canc> (493)
1

>  <Mouse_Male_NTP> (493)
ND

>  <ChemName> (493)
Sodium ortho-phenylphenate

>  <Rat_Male_NTP> (493)
ND

>  <Reference> (493)
CPDB

>  <Formula> (493)
C12H9ONa

>  <SMILES> (493)
[Na+].[O-]c1ccccc1c2ccccc2

>  <Rat_Female_NTP> (493)
ND

>  <CAS> (493)
132-27-4

>  <Mouse_Female_NTP> (493)
ND

>  <Synonyms> (493)
(2-biphenylyloxy)sodium; bactrol; D.C.S.; dorvicide a; Dowicide; dowicide a; dowizid; mil-du-rid; natriphene; OPP-NA; orphenol; preventolon; Preventol ON extra; [1,1'-Biphenyl]-2-ol, sodium salt; 2-Biphenylol, Sodium Salt; 2-hydroxybiphenyl sodium salt; 2-Phenylphenol Sodium Salt; sodium o-phenylphenolate; o-phenylphenol, sodium deriv.; Sodium o-phenylphenoxide; Biphenylol, sodium salt; Hydroxydiphenyl, sodium salt; Phenylphenol, sodium salt; SOPP; stopmold b; topane.

$$$$
494


  3  2  0  0  0  0  0  0  0  0999 V2000
   -0.0144    1.2138    0.0087 N   0  0  0  0  0  0  0  0  0  1  0  0
    0.0021   -0.0041    0.0020 O   0  0  0  0  0  0  0  0  0  2  0  0
    1.0320    1.8371    0.0021 O   0  5  0  0  0  0  0  0  0  3  0  0
  1  2  2  0  0  0  0
  1  3  1  0  0  0  0
M  END
>  <Substance ID> (494)
494

>  <Mouse_Female_Canc> (494)
1

>  <SAL> (494)
3

>  <Rat_Male_Canc> (494)
3

>  <TD50_Rat> (494)
167

>  <TD50_Mouse> (494)
NP

>  <Rat_Female_Canc> (494)
3

>  <Canc> (494)
3

>  <MolWeight> (494)
69.00

>  <Mouse_Male_Canc> (494)
1

>  <Mouse_Male_NTP> (494)
ND

>  <ChemName> (494)
Sodium nitrite

>  <Rat_Male_NTP> (494)
ND

>  <Reference> (494)
CPDB

>  <Formula> (494)
NO2Na

>  <SMILES> (494)
[Na+].[O-]N=O

>  <Rat_Female_NTP> (494)
ND

>  <CAS> (494)
7632-00-0

>  <Mouse_Female_NTP> (494)
ND

>  <Synonyms> (494)
Anti-rust; diazoting salts; erinitrit; Filmerine.

$$$$
495


 23 24  0  0  0  0  0  0  0  0999 V2000
   32.8870  -54.7287   -0.0012 C   0  0  0  0  0  0  0  0  0  0  0  0
   33.5683  -55.8721   -0.0003 C   0  0  0  0  0  0  0  0  0  0  0  0
   35.6953  -54.6999   -0.0009 C   0  0  0  0  0  0  0  0  0  0  0  0
   34.9259  -53.4220   -0.0010 C   0  0  0  0  0  0  0  0  0  0  0  0
   35.0329  -55.8573   -0.0001 C   0  0  0  0  0  0  0  0  0  0  0  0
   33.5965  -53.4534   -0.0011 C   0  0  0  0  0  0  0  0  0  0  0  0
   35.5575  -52.1825   -0.0010 O   0  0  0  0  0  0  0  0  0  0  0  0
   37.1784  -54.7230    0.0002 C   0  0  0  0  0  0  0  0  0  0  0  0
   37.8184  -55.8917    0.0006 C   0  0  0  0  0  0  0  0  0  0  0  0
   39.9809  -54.7900    0.0008 C   0  0  0  0  0  0  0  0  0  0  0  0
   39.2846  -53.5096    0.0008 C   0  0  0  0  0  0  0  0  0  0  0  0
   39.2846  -55.9255    0.0009 C   0  0  0  0  0  0  0  0  0  0  0  0
   37.9564  -53.4801    0.0007 C   0  0  0  0  0  0  0  0  0  0  0  0
   31.8871  -54.7435   -0.0019 H   0  0  0  0  0  0  0  0  0  0  0  0
   33.0786  -56.7440    0.0002 H   0  0  0  0  0  0  0  0  0  0  0  0
   35.5389  -56.7198    0.0006 H   0  0  0  0  0  0  0  0  0  0  0  0
   33.0795  -52.5975   -0.0010 H   0  0  0  0  0  0  0  0  0  0  0  0
   34.8691  -51.4571   -0.0011 H   0  0  0  0  0  0  0  0  0  0  0  0
   37.2988  -56.7461    0.0008 H   0  0  0  0  0  0  0  0  0  0  0  0
   40.9805  -54.8159    0.0008 H   0  0  0  0  0  0  0  0  0  0  0  0
   39.8051  -52.6557    0.0010 H   0  0  0  0  0  0  0  0  0  0  0  0
   39.7630  -56.8037    0.0011 H   0  0  0  0  0  0  0  0  0  0  0  0
   37.4817  -52.6000    0.0009 H   0  0  0  0  0  0  0  0  0  0  0  0
  1  2  2  0  0  0  0
  3  4  1  0  0  0  0
  1  6  1  0  0  0  0
  2  5  1  0  0  0  0
  5  3  2  0  0  0  0
  4  6  2  0  0  0  0
  4  7  1  0  0  0  0
  3  8  1  0  0  0  0
  8  9  2  0  0  0  0
 10 11  1  0  0  0  0
  8 13  1  0  0  0  0
  9 12  1  0  0  0  0
 12 10  2  0  0  0  0
 11 13  2  0  0  0  0
  1 14  1  0  0  0  0
  2 15  1  0  0  0  0
  5 16  1  0  0  0  0
  6 17  1  0  0  0  0
  7 18  1  0  0  0  0
  9 19  1  0  0  0  0
 10 20  1  0  0  0  0
 11 21  1  0  0  0  0
 12 22  1  0  0  0  0
 13 23  1  0  0  0  0
M  END
>  <Substance ID> (495)
495

>  <Mouse_Female_Canc> (495)
1

>  <SAL> (495)
3

>  <Rat_Male_Canc> (495)
3

>  <TD50_Rat> (495)
232

>  <TD50_Mouse> (495)
NP

>  <Rat_Female_Canc> (495)
ND

>  <Canc> (495)
3

>  <MolWeight> (495)
170.21

>  <Mouse_Male_Canc> (495)
1

>  <Mouse_Male_NTP> (495)
NE

>  <ChemName> (495)
Phenylphenol

>  <Rat_Male_NTP> (495)
ND

>  <Reference> (495)
CPDB & NTP301

>  <Formula> (495)
C12H10O

>  <SMILES> (495)
OC1=C(C=CC=C1)C2=CC=CC=C2

>  <Rat_Female_NTP> (495)
ND

>  <CAS> (495)
90-43-7

>  <Mouse_Female_NTP> (495)
NE

>  <Synonyms> (495)
(1,1-Biphenyl)-2-ol; 1,1'-Biphenyl-2-ol; 2-Biphenylol; orthohydroxydipbenyl; 2-Hydroxybiphenyl; 2-Phenylphenol; Orthoxenol; o-Xonal; biphenyl-2-ol; Biphenylol; Dowicide 1; Hydroxdiphenyl; Hydroxy-2-phenylbenzene; Hydroxybiphenyl; OPP; Preventol O extra; Remol TRF; Torsite; Tumescal OPE; Xenol.

$$$$
496


 29 28  0  0  0  0  0  0  0  0999 V2000
   31.4868  -77.3523   -0.0057 C   0  0  0  0  0  0  0  0  0  0  0  0
   31.5874  -75.8232    0.1418 C   0  0  0  0  0  0  0  0  0  0  0  0
   33.0257  -75.4096   -0.1992 C   0  0  0  0  0  0  0  0  0  0  0  0
   33.2605  -73.9723    0.0580 N   0  0  0  0  0  0  0  0  0  0  0  0
   31.6690  -70.5473   -0.2700 C   0  0  0  0  0  0  0  0  0  0  0  0
   32.7441  -71.5983    0.0315 C   0  0  0  0  0  0  0  0  0  0  0  0
   32.2691  -72.9936   -0.4060 C   0  0  0  0  0  0  0  0  0  0  0  0
   34.5513  -73.6019   -0.1868 N   0  0  0  0  0  0  0  0  0  0  0  0
   35.3989  -74.4028   -0.2065 O   0  0  0  0  0  0  0  0  0  0  0  0
   32.2463  -69.1554    0.0315 C   0  0  0  0  0  0  0  0  0  0  0  0
   33.3199  -68.9215   -0.8036 F   0  0  0  0  0  0  0  0  0  0  0  0
   32.6657  -69.0986    1.3449 F   0  0  0  0  0  0  0  0  0  0  0  0
   31.2789  -68.1978   -0.1853 F   0  0  0  0  0  0  0  0  0  0  0  0
   30.0267  -77.7980    0.1361 C   0  0  0  0  0  0  0  0  0  0  0  0
   29.2827  -77.2335   -0.8789 F   0  0  0  0  0  0  0  0  0  0  0  0
   29.5286  -77.3912    1.3554 F   0  0  0  0  0  0  0  0  0  0  0  0
   29.9600  -79.1729    0.0448 F   0  0  0  0  0  0  0  0  0  0  0  0
   31.8290  -77.6212   -0.9060 H   0  0  0  0  0  0  0  0  0  0  0  0
   32.0371  -77.7903    0.7051 H   0  0  0  0  0  0  0  0  0  0  0  0
   30.9484  -75.3787   -0.4859 H   0  0  0  0  0  0  0  0  0  0  0  0
   31.3714  -75.5578    1.0814 H   0  0  0  0  0  0  0  0  0  0  0  0
   33.6577  -75.9457    0.3605 H   0  0  0  0  0  0  0  0  0  0  0  0
   33.1954  -75.5970   -1.1667 H   0  0  0  0  0  0  0  0  0  0  0  0
   31.4058  -70.6013   -1.2332 H   0  0  0  0  0  0  0  0  0  0  0  0
   30.8672  -70.7111    0.3048 H   0  0  0  0  0  0  0  0  0  0  0  0
   33.5807  -71.3650   -0.4642 H   0  0  0  0  0  0  0  0  0  0  0  0
   32.9297  -71.6069    1.0141 H   0  0  0  0  0  0  0  0  0  0  0  0
   31.3781  -73.1927    0.0020 H   0  0  0  0  0  0  0  0  0  0  0  0
   32.1957  -73.0306   -1.4027 H   0  0  0  0  0  0  0  0  0  0  0  0
  1  2  1  0  0  0  0
  2  3  1  0  0  0  0
  3  4  1  0  0  0  0
  5  6  1  0  0  0  0
  6  7  1  0  0  0  0
  7  4  1  0  0  0  0
  4  8  1  0  0  0  0
  8  9  2  0  0  0  0
  5 10  1  0  0  0  0
 10 11  1  0  0  0  0
 10 12  1  0  0  0  0
 10 13  1  0  0  0  0
  1 14  1  0  0  0  0
 14 15  1  0  0  0  0
 14 16  1  0  0  0  0
 14 17  1  0  0  0  0
  1 18  1  0  0  0  0
  1 19  1  0  0  0  0
  2 20  1  0  0  0  0
  2 21  1  0  0  0  0
  3 22  1  0  0  0  0
  3 23  1  0  0  0  0
  5 24  1  0  0  0  0
  5 25  1  0  0  0  0
  6 26  1  0  0  0  0
  6 27  1  0  0  0  0
  7 28  1  0  0  0  0
  7 29  1  0  0  0  0
M  END
>  <Substance ID> (496)
496

>  <Mouse_Female_Canc> (496)
ND

>  <SAL> (496)
ND

>  <Rat_Male_Canc> (496)
3

>  <TD50_Rat> (496)
0.748

>  <TD50_Mouse> (496)
ND

>  <Rat_Female_Canc> (496)
3

>  <Canc> (496)
3

>  <MolWeight> (496)
266.19

>  <Mouse_Male_Canc> (496)
ND

>  <Mouse_Male_NTP> (496)
ND

>  <ChemName> (496)
N-nitroso-bis-(4,4,4-trifluoro-n-butyl)amine

>  <Rat_Male_NTP> (496)
ND

>  <Reference> (496)
CPDB

>  <Formula> (496)
C8H12F6N2O

>  <SMILES> (496)
N(CCCC(F)(F)F)(CCCC(F)(F)F)N=O

>  <Rat_Female_NTP> (496)
ND

>  <CAS> (496)
83335-32-4

>  <Mouse_Female_NTP> (496)
ND

>  <Synonyms> (496)
-

$$$$
497


 16 17  0  0  0  0  0  0  0  0999 V2000
   35.8260  -80.0650   -0.0445 S   0  0  0  0  0  0  0  0  0  0  0  0
   36.2410  -78.4089    0.3144 N   0  5  0  0  0  0  0  0  0  0  0  0
   35.0034  -77.6420    0.3617 C   0  0  0  0  0  0  0  0  0  0  0  0
   34.1028  -79.7561   -0.1222 C   0  0  0  0  0  0  0  0  0  0  0  0
   33.8130  -78.4826    0.1016 C   0  0  0  0  0  0  0  0  0  0  0  0
   31.4704  -78.8950   -0.1676 C   0  0  0  0  0  0  0  0  0  0  0  0
   31.8002  -80.3254   -0.4180 C   0  0  0  0  0  0  0  0  0  0  0  0
   32.4403  -78.0105    0.0823 C   0  0  0  0  0  0  0  0  0  0  0  0
   33.0703  -80.7385   -0.3958 C   0  0  0  0  0  0  0  0  0  0  0  0
   34.9464  -76.4227    0.5944 O   0  0  0  0  0  0  0  0  0  0  0  0
   36.3604  -80.5520   -1.3806 O   0  0  0  0  0  0  0  0  0  0  0  0
   36.1658  -81.0382    1.0716 O   0  0  0  0  0  0  0  0  0  0  0  0
   30.5168  -78.5944   -0.1865 H   0  0  0  0  0  0  0  0  0  0  0  0
   31.0673  -80.9799   -0.6037 H   0  0  0  0  0  0  0  0  0  0  0  0
   32.2262  -77.0484    0.2515 H   0  0  0  0  0  0  0  0  0  0  0  0
   33.3029  -81.6967   -0.5628 H   0  0  0  0  0  0  0  0  0  0  0  0
  1  2  1  0  0  0  0
  2  3  1  0  0  0  0
  3  5  1  0  0  0  0
  4  1  1  0  0  0  0
  4  5  2  0  0  0  0
  6  7  1  0  0  0  0
  4  9  1  0  0  0  0
  5  8  1  0  0  0  0
  8  6  2  0  0  0  0
  7  9  2  0  0  0  0
  3 10  2  0  0  0  0
  1 11  2  0  0  0  0
  1 12  2  0  0  0  0
  6 13  1  0  0  0  0
  7 14  1  0  0  0  0
  8 15  1  0  0  0  0
  9 16  1  0  0  0  0
M  END
>  <Substance ID> (497)
497

>  <Mouse_Female_Canc> (497)
1

>  <SAL> (497)
1

>  <Rat_Male_Canc> (497)
3

>  <TD50_Rat> (497)
2140

>  <TD50_Mouse> (497)
NP

>  <Rat_Female_Canc> (497)
1

>  <Canc> (497)
3

>  <MolWeight> (497)
205.16

>  <Mouse_Male_Canc> (497)
1

>  <Mouse_Male_NTP> (497)
ND

>  <ChemName> (497)
Saccharin sodium

>  <Rat_Male_NTP> (497)
ND

>  <Reference> (497)
CPDB

>  <Formula> (497)
C7H4NO3SNa

>  <SMILES> (497)
[Na+].O=C1[N-]S(=O)(=O)c2ccccc12

>  <Rat_Female_NTP> (497)
ND

>  <CAS> (497)
128-44-9

>  <Mouse_Female_NTP> (497)
ND

>  <Synonyms> (497)
artificial sweetening substance gendorf 450; crystallose; dagutan; madhurin; Saccharin soluble; Saxin; sodium 1,2-benzisothiasolin-3-one-1,1-dioxide; 1,2-Benzisothiazol-3(2H)-one 1,1-dioxide, sodium salt; 1,2-benzisothiazolin-3-one, 1,1-dioxide, sodium salt; Sodium 1,2-benzothiazol-3-on-2-ide 1,1-dioxide; o-Benzoic sulfimide sodium salt dihydrate; sodium o-benzosulfimide; o-sulfobenzoic acid imide sodium salt; sodium benzosulfimide; sodium saccharide; Sodium saccharin; sodium saccharinate; sulfobenzoic imide, sodium salt; soluble gluside; soluble saccharin; succaril; Sucra; sweeta; sykose; willosetten.

$$$$
498


 22 21  0  0  0  0  0  0  0  0999 V2000
    1.6359   -5.0658   -0.1847 O   0  0  0  0  0  0  0  0  0  0  0  0
    2.8487   -4.3805   -0.5080 C   0  0  0  0  0  0  0  0  0  0  0  0
    4.0208   -5.0160    0.2781 C   0  0  0  0  0  0  0  0  0  0  0  0
    5.3294   -4.3605   -0.0020 N   0  0  0  0  0  0  0  0  0  0  0  0
    6.5182   -5.1436    0.3818 C   0  0  0  0  0  0  0  0  0  0  0  0
    7.8105   -4.4864   -0.1527 C   0  0  2  0  0  0  0  0  0  0  0  0
    9.0196   -5.3526    0.2441 C   0  0  0  0  0  0  0  0  0  0  0  0
    7.9700   -3.1816    0.4066 O   0  0  0  0  0  0  0  0  0  0  0  0
    5.4387   -3.0141    0.3249 N   0  0  0  0  0  0  0  0  0  0  0  0
    4.5083   -2.3097    0.4600 O   0  0  0  0  0  0  0  0  0  0  0  0
    0.8765   -4.6574   -0.6912 H   0  0  0  0  0  0  0  0  0  0  0  0
    3.0243   -4.4576   -1.4895 H   0  0  0  0  0  0  0  0  0  0  0  0
    2.7637   -3.4158   -0.2588 H   0  0  0  0  0  0  0  0  0  0  0  0
    3.8280   -4.9384    1.2562 H   0  0  0  0  0  0  0  0  0  0  0  0
    4.0873   -5.9815    0.0265 H   0  0  0  0  0  0  0  0  0  0  0  0
    6.5668   -5.1964    1.3792 H   0  0  0  0  0  0  0  0  0  0  0  0
    6.4390   -6.0653    0.0021 H   0  0  0  0  0  0  0  0  0  0  0  0
    7.7496   -4.4117   -1.1481 H   0  0  0  0  0  0  0  0  0  0  0  0
    9.8590   -4.9316   -0.0995 H   0  0  0  0  0  0  0  0  0  0  0  0
    8.9197   -6.2660   -0.1505 H   0  0  0  0  0  0  0  0  0  0  0  0
    9.0666   -5.4236    1.2405 H   0  0  0  0  0  0  0  0  0  0  0  0
    8.8088   -2.7673    0.0534 H   0  0  0  0  0  0  0  0  0  0  0  0
  1  2  1  0  0  0  0
  2  3  1  0  0  0  0
  3  4  1  0  0  0  0
  4  5  1  0  0  0  0
  6  5  1  0  0  0  0
  6  7  1  0  0  0  0
  6  8  1  1  0  0  0
  4  9  1  0  0  0  0
  9 10  2  0  0  0  0
  1 11  1  0  0  0  0
  2 12  1  0  0  0  0
  2 13  1  0  0  0  0
  3 14  1  0  0  0  0
  3 15  1  0  0  0  0
  5 16  1  0  0  0  0
  5 17  1  0  0  0  0
  6 18  1  0  0  0  0
  7 19  1  0  0  0  0
  7 20  1  0  0  0  0
  7 21  1  0  0  0  0
  8 22  1  0  0  0  0
M  END
>  <Substance ID> (498)
498

>  <Mouse_Female_Canc> (498)
ND

>  <SAL> (498)
ND

>  <Rat_Male_Canc> (498)
ND

>  <TD50_Rat> (498)
1.02

>  <TD50_Mouse> (498)
ND

>  <Rat_Female_Canc> (498)
3

>  <Canc> (498)
3

>  <MolWeight> (498)
148.16

>  <Mouse_Male_Canc> (498)
ND

>  <Mouse_Male_NTP> (498)
ND

>  <ChemName> (498)
N-nitroso-(2-hydroxypropyl)-(2-hydroxyethyl)amine

>  <Rat_Male_NTP> (498)
ND

>  <Reference> (498)
CPDB

>  <Formula> (498)
C5H12N2O3

>  <SMILES> (498)
O=NN(C[C@@H](O)C)CCO

>  <Rat_Female_NTP> (498)
ND

>  <CAS> (498)
75896-33-2

>  <Mouse_Female_NTP> (498)
ND

>  <Synonyms> (498)
-

$$$$
499


 12 11  0  0  0  0  0  0  0  0999 V2000
    2.0438  -12.9140   -0.0004 C   0  0  0  0  0  0  0  0  0  0  0  0
    3.4066  -12.2839   -0.0001 C   0  0  0  0  0  0  0  0  0  0  0  0
    4.5438  -13.0856    0.0004 O   0  0  0  0  0  0  0  0  0  0  0  0
    5.6790  -12.2810   -0.0000 C   0  0  0  0  0  0  0  0  0  0  0  0
    6.8884  -12.8364    0.0000 C   0  0  0  0  0  0  0  0  0  0  0  0
    3.5183  -11.0527   -0.0004 O   0  0  0  0  0  0  0  0  0  0  0  0
    1.3452  -12.1985   -0.0008 H   0  0  0  0  0  0  0  0  0  0  0  0
    1.9383  -13.4817    0.8160 H   0  0  0  0  0  0  0  0  0  0  0  0
    1.9388  -13.4820   -0.8168 H   0  0  0  0  0  0  0  0  0  0  0  0
    5.5861  -11.2853   -0.0004 H   0  0  0  0  0  0  0  0  0  0  0  0
    7.7042  -12.2581   -0.0003 H   0  0  0  0  0  0  0  0  0  0  0  0
    6.9814  -13.8321    0.0004 H   0  0  0  0  0  0  0  0  0  0  0  0
  1  2  1  0  0  0  0
  2  3  1  0  0  0  0
  3  4  1  0  0  0  0
  4  5  2  0  0  0  0
  2  6  2  0  0  0  0
  1  7  1  0  0  0  0
  1  8  1  0  0  0  0
  1  9  1  0  0  0  0
  4 10  1  0  0  0  0
  5 11  1  0  0  0  0
  5 12  1  0  0  0  0
M  END
>  <Substance ID> (499)
499

>  <Mouse_Female_Canc> (499)
3

>  <SAL> (499)
1

>  <Rat_Male_Canc> (499)
3

>  <TD50_Rat> (499)
341

>  <TD50_Mouse> (499)
3920

>  <Rat_Female_Canc> (499)
3

>  <Canc> (499)
3

>  <MolWeight> (499)
86.09

>  <Mouse_Male_Canc> (499)
1

>  <Mouse_Male_NTP> (499)
ND

>  <ChemName> (499)
Vinyl Acetate 

>  <Rat_Male_NTP> (499)
ND

>  <Reference> (499)
CPDB

>  <Formula> (499)
C4H6O2

>  <SMILES> (499)
CC(=O)OC=C

>  <Rat_Female_NTP> (499)
ND

>  <CAS> (499)
108-05-4

>  <Mouse_Female_NTP> (499)
ND

>  <Synonyms> (499)
Acetic acid ethenyl ester; Acetic acid ethylene ether; Acetic acid vinyl ester; Ethenyl acetate; Vinyl acetate monomer.

$$$$
500


 26 27  0  0  0  0  0  0  0  0999 V2000
   10.9088  -21.0657   -0.0047 C   0  0  0  0  0  0  0  0  0  0  0  0
   11.6870  -22.0705   -0.0202 N   0  0  0  0  0  0  0  0  0  0  0  0
   13.0023  -21.6499   -0.0186 O   0  0  0  0  0  0  0  0  0  0  0  0
   12.8190  -20.2385    0.0015 C   0  0  0  0  0  0  0  0  0  0  0  0
   11.6021  -19.9153    0.0091 N   0  0  0  0  0  0  0  0  0  0  0  0
    8.6554  -22.2731   -0.0017 O   0  0  0  0  0  0  0  0  0  0  0  0
    9.4452  -21.0980   -0.0027 C   0  0  0  0  0  0  0  0  0  0  0  0
    8.7284  -19.9815   -0.0021 C   0  0  0  0  0  0  0  0  0  0  0  0
    7.3701  -20.3658   -0.0008 C   0  0  0  0  0  0  0  0  0  0  0  0
    7.3570  -21.6905    0.0002 C   0  0  0  0  0  0  0  0  0  0  0  0
   13.9171  -19.2094    0.0119 C   0  0  0  0  0  0  0  0  0  0  0  0
   15.2480  -19.8089   -0.0040 N   0  0  0  0  0  0  0  0  0  0  0  0
   16.3846  -18.9236    0.0046 C   0  0  0  0  0  0  0  0  0  0  0  0
   17.7811  -19.4749   -0.0036 C   0  0  0  0  0  0  0  0  0  0  0  0
   16.2097  -17.6982    0.0167 O   0  0  0  0  0  0  0  0  0  0  0  0
    6.1784  -22.4212    0.0037 N   0  3  0  0  0  0  0  0  0  0  0  0
    5.0174  -21.7877    0.0025 O   0  5  0  0  0  0  0  0  0  0  0  0
    6.2157  -23.5933    0.0089 O   0  0  0  0  0  0  0  0  0  0  0  0
    9.0827  -19.0463   -0.0025 H   0  0  0  0  0  0  0  0  0  0  0  0
    6.5755  -19.7586   -0.0007 H   0  0  0  0  0  0  0  0  0  0  0  0
   13.8183  -18.6276   -0.7954 H   0  0  0  0  0  0  0  0  0  0  0  0
   13.8264  -18.6528    0.8377 H   0  0  0  0  0  0  0  0  0  0  0  0
   15.3670  -20.8017   -0.0203 H   0  0  0  0  0  0  0  0  0  0  0  0
   18.4377  -18.7208    0.0042 H   0  0  0  0  0  0  0  0  0  0  0  0
   17.9174  -20.0266   -0.8265 H   0  0  0  0  0  0  0  0  0  0  0  0
   17.9196  -20.0451    0.8062 H   0  0  0  0  0  0  0  0  0  0  0  0
  1  2  2  0  0  0  0
  2  3  1  0  0  0  0
  3  4  1  0  0  0  0
  4  5  2  0  0  0  0
  5  1  1  0  0  0  0
  9 10  2  0  0  0  0
  7  8  2  0  0  0  0
  6  7  1  0  0  0  0
  8  9  1  0  0  0  0
 10  6  1  0  0  0  0
  7  1  1  0  0  0  0
  4 11  1  0  0  0  0
 11 12  1  0  0  0  0
 12 13  1  0  0  0  0
 13 14  1  0  0  0  0
 13 15  2  0  0  0  0
 10 16  1  0  0  0  0
 16 17  1  0  0  0  0
 16 18  2  0  0  0  0
  8 19  1  0  0  0  0
  9 20  1  0  0  0  0
 11 21  1  0  0  0  0
 11 22  1  0  0  0  0
 12 23  1  0  0  0  0
 14 24  1  0  0  0  0
 14 25  1  0  0  0  0
 14 26  1  0  0  0  0
M  END
>  <Substance ID> (500)
500

>  <Mouse_Female_Canc> (500)
ND

>  <SAL> (500)
3

>  <Rat_Male_Canc> (500)
ND

>  <TD50_Rat> (500)
59.6

>  <TD50_Mouse> (500)
ND

>  <Rat_Female_Canc> (500)
3

>  <Canc> (500)
3

>  <MolWeight> (500)
252.19

>  <Mouse_Male_Canc> (500)
ND

>  <Mouse_Male_NTP> (500)
ND

>  <ChemName> (500)
N-{[3-(5-nitro-2-furyl)-1,2,4-oxadiazole-5-yl]-methyl}acetamide

>  <Rat_Male_NTP> (500)
ND

>  <Reference> (500)
CPDB

>  <Formula> (500)
C9H8N4O5

>  <SMILES> (500)
O=C(C)NCC1=NC(=NO1)C2=CC=C(O2)[N+]([O-])=O

>  <Rat_Female_NTP> (500)
ND

>  <CAS> (500)
36133-88-7

>  <Mouse_Female_NTP> (500)
ND

>  <Synonyms> (500)
-

$$$$
501


  3  2  0  0  0  0  0  0  0  0999 V2000
   -0.0003    0.0005   -0.0000 Se  0  0  0  0  0  0  0  0  0  1  0  0
    0.9997    0.0005   -0.0000 H   0  0  0  0  0  0  0  0  0  0  0  0
   -0.3341    0.9431   -0.0000 H   0  0  0  0  0  0  0  0  0  0  0  0
  1  2  1  0  0  0  0
  1  3  1  0  0  0  0
M  END
>  <Substance ID> (501)
501

>  <Mouse_Female_Canc> (501)
1

>  <SAL> (501)
ND

>  <Rat_Male_Canc> (501)
ND

>  <TD50_Rat> (501)
ND

>  <TD50_Mouse> (501)
NP

>  <Rat_Female_Canc> (501)
ND

>  <Canc> (501)
1

>  <MolWeight> (501)
80.98

>  <Mouse_Male_Canc> (501)
ND

>  <Mouse_Male_NTP> (501)
ND

>  <ChemName> (501)
Selenium

>  <Rat_Male_NTP> (501)
ND

>  <Reference> (501)
CPDB

>  <Formula> (501)
H2Se

>  <SMILES> (501)
[Se]

>  <Rat_Female_NTP> (501)
ND

>  <CAS> (501)
7782-49-2

>  <Mouse_Female_NTP> (501)
ND

>  <Synonyms> (501)
Selenium and compounds; Selenium atom; SELENIUM POWDER.

$$$$
502


 21 22  0  0  0  0  0  0  0  0999 V2000
    8.7068  -38.4714   -0.0052 C   0  0  0  0  0  0  0  0  0  0  0  0
    9.6486  -39.5684   -0.0027 N   0  0  0  0  0  0  0  0  0  0  0  0
   10.8649  -39.1550   -0.0068 C   0  0  0  0  0  0  0  0  0  0  0  0
   10.9822  -37.4202   -0.0173 S   0  0  0  0  0  0  0  0  0  0  0  0
    9.2612  -37.2555   -0.0123 C   0  0  0  0  0  0  0  0  0  0  0  0
    6.5494  -39.8681   -0.0033 O   0  0  0  0  0  0  0  0  0  0  0  0
    7.2454  -38.6279    0.0009 C   0  0  0  0  0  0  0  0  0  0  0  0
    6.4379  -37.5749    0.0107 C   0  0  0  0  0  0  0  0  0  0  0  0
    5.1136  -38.0666    0.0143 C   0  0  0  0  0  0  0  0  0  0  0  0
    5.2019  -39.3882    0.0051 C   0  0  0  0  0  0  0  0  0  0  0  0
   12.0006  -39.9784   -0.0014 N   0  0  0  0  0  0  0  0  0  0  0  0
   13.2768  -39.3753   -0.0006 C   0  0  0  0  0  0  0  0  0  0  0  0
   14.3054  -40.0630    0.0132 O   0  0  0  0  0  0  0  0  0  0  0  0
    4.0752  -40.2029    0.0029 N   0  3  0  0  0  0  0  0  0  0  0  0
    2.8709  -39.6498    0.0171 O   0  5  0  0  0  0  0  0  0  0  0  0
    4.1891  -41.3704   -0.0129 O   0  0  0  0  0  0  0  0  0  0  0  0
    8.7610  -36.3896   -0.0144 H   0  0  0  0  0  0  0  0  0  0  0  0
    6.7148  -36.6140    0.0147 H   0  0  0  0  0  0  0  0  0  0  0  0
    4.2740  -37.5234    0.0222 H   0  0  0  0  0  0  0  0  0  0  0  0
   11.9078  -40.9741    0.0018 H   0  0  0  0  0  0  0  0  0  0  0  0
   13.3508  -38.3781   -0.0113 H   0  0  0  0  0  0  0  0  0  0  0  0
  1  2  1  0  0  0  0
  2  3  2  0  0  0  0
  3  4  1  0  0  0  0
  4  5  1  0  0  0  0
  5  1  2  0  0  0  0
  9 10  2  0  0  0  0
  7  8  2  0  0  0  0
  6  7  1  0  0  0  0
  8  9  1  0  0  0  0
 10  6  1  0  0  0  0
  7  1  1  0  0  0  0
  3 11  1  0  0  0  0
 11 12  1  0  0  0  0
 12 13  2  0  0  0  0
 10 14  1  0  0  0  0
 14 15  1  0  0  0  0
 14 16  2  0  0  0  0
  5 17  1  0  0  0  0
  8 18  1  0  0  0  0
  9 19  1  0  0  0  0
 11 20  1  0  0  0  0
 12 21  1  0  0  0  0
M  END
>  <Substance ID> (502)
502

>  <Mouse_Female_Canc> (502)
3

>  <SAL> (502)
3

>  <Rat_Male_Canc> (502)
3

>  <TD50_Rat> (502)
4.25

>  <TD50_Mouse> (502)
19.7

>  <Rat_Female_Canc> (502)
3

>  <Canc> (502)
3

>  <MolWeight> (502)
239.21

>  <Mouse_Male_Canc> (502)
3

>  <Mouse_Male_NTP> (502)
ND

>  <ChemName> (502)
N-[4-(5-nitro-2-furyl)-2-thiazolyl]formamide

>  <Rat_Male_NTP> (502)
ND

>  <Reference> (502)
CPDB

>  <Formula> (502)
C8H5N3O4S

>  <SMILES> (502)
[O-][N+](=O)C1=CC=C(O1)C2=CSC(=N2)NC=O

>  <Rat_Female_NTP> (502)
ND

>  <CAS> (502)
24554-26-5

>  <Mouse_Female_NTP> (502)
ND

>  <Synonyms> (502)
2-formylamino-4-(5-nitro-2-furyl)thiazole; Fanft; N-[4-(5-nitro-2-furanyl)-2-thiazolyl]formamide.

$$$$
503


 38 38  0  0  0  0  0  0  0  0999 V2000
    4.4222  -50.0773   -0.2535 C   0  0  0  0  0  0  0  0  0  1  0  0
    5.3942  -50.4437   -1.0889 C   0  0  0  0  0  0  0  0  0  2  0  0
    7.0726  -49.3462    0.2773 C   0  0  0  0  0  0  0  0  0  3  0  0
    6.0006  -48.9313    1.1817 C   0  0  0  0  0  0  0  0  0  4  0  0
    6.7865  -50.0606   -0.8111 C   0  0  0  0  0  0  0  0  0  5  0  0
    4.7403  -49.2765    0.9312 C   0  0  0  0  0  0  0  0  0  6  0  0
    3.1063  -50.4545   -0.5067 O   0  0  0  0  0  0  0  0  0  7  0  0
    3.6485  -48.8402    1.8632 C   0  0  0  0  0  0  0  0  0  8  0  0
    4.2061  -48.0253    2.8994 O   0  0  0  0  0  0  0  0  0  9  0  0
    8.4941  -48.9942    0.6174 C   0  0  1  0  0  0  0  0  0 10  0  0
    9.5680  -49.8871   -0.0279 C   0  0  0  0  0  0  0  0  0 11  0  0
   10.8503  -49.5565    0.6333 N   0  0  0  0  0  0  0  0  0 12  0  0
   12.0238  -50.0589   -0.1069 C   0  0  0  0  0  0  0  0  0 13  0  0
   12.1334  -49.3284   -1.4600 C   0  0  0  0  0  0  0  0  0 14  0  0
   13.2877  -49.7684    0.7253 C   0  0  0  0  0  0  0  0  0 15  0  0
   11.9109  -51.5784   -0.3433 C   0  0  0  0  0  0  0  0  0 16  0  0
    8.7532  -47.6057    0.4192 O   0  0  0  0  0  0  0  0  0 17  0  0
    5.1764  -50.9793   -1.9048 H   0  0  0  0  0  0  0  0  0 18  0  0
    6.2157  -48.3858    1.9918 H   0  0  0  0  0  0  0  0  0 19  0  0
    7.5165  -50.3352   -1.4370 H   0  0  0  0  0  0  0  0  0 20  0  0
    2.5122  -50.0979    0.2143 H   0  0  0  0  0  0  0  0  0 21  0  0
    2.9669  -48.3136    1.3550 H   0  0  0  0  0  0  0  0  0 22  0  0
    3.2145  -49.6448    2.2685 H   0  0  0  0  0  0  0  0  0 23  0  0
    3.4799  -47.7334    3.5217 H   0  0  0  0  0  0  0  0  0 24  0  0
    8.5762  -49.1921    1.5942 H   0  0  0  0  0  0  0  0  0 25  0  0
    9.3454  -50.8515    0.1150 H   0  0  0  0  0  0  0  0  0 26  0  0
    9.6277  -49.7001   -1.0084 H   0  0  0  0  0  0  0  0  0 27  0  0
   10.9229  -48.5620    0.7094 H   0  0  0  0  0  0  0  0  0 28  0  0
   12.9290  -49.6700   -1.9603 H   0  0  0  0  0  0  0  0  0 29  0  0
   12.2361  -48.3463   -1.3018 H   0  0  0  0  0  0  0  0  0 30  0  0
   11.3062  -49.4944   -1.9969 H   0  0  0  0  0  0  0  0  0 31  0  0
   14.0933  -50.1034    0.2366 H   0  0  0  0  0  0  0  0  0 32  0  0
   13.2187  -50.2305    1.6094 H   0  0  0  0  0  0  0  0  0 33  0  0
   13.3725  -48.7826    0.8705 H   0  0  0  0  0  0  0  0  0 34  0  0
   12.7142  -51.8987   -0.8453 H   0  0  0  0  0  0  0  0  0 35  0  0
   11.0866  -51.7732   -0.8749 H   0  0  0  0  0  0  0  0  0 36  0  0
   11.8585  -52.0501    0.5370 H   0  0  0  0  0  0  0  0  0 37  0  0
    9.7046  -47.4068    0.6540 H   0  0  0  0  0  0  0  0  0 38  0  0
  1  2  2  0  0  0  0
  3  4  1  0  0  0  0
  1  6  1  0  0  0  0
  2  5  1  0  0  0  0
  5  3  2  0  0  0  0
  4  6  2  0  0  0  0
  1  7  1  0  0  0  0
  6  8  1  0  0  0  0
  8  9  1  0  0  0  0
  3 10  1  0  0  0  0
 10 11  1  0  0  0  0
 11 12  1  0  0  0  0
 12 13  1  0  0  0  0
 13 14  1  0  0  0  0
 13 15  1  0  0  0  0
 13 16  1  0  0  0  0
 10 17  1  0  0  0  0
  2 18  1  0  0  0  0
  4 19  1  0  0  0  0
  5 20  1  0  0  0  0
  7 21  1  0  0  0  0
  8 22  1  0  0  0  0
  8 23  1  0  0  0  0
  9 24  1  0  0  0  0
 10 25  1  0  0  0  0
 11 26  1  0  0  0  0
 11 27  1  0  0  0  0
 12 28  1  0  0  0  0
 14 29  1  0  0  0  0
 14 30  1  0  0  0  0
 14 31  1  0  0  0  0
 15 32  1  0  0  0  0
 15 33  1  0  0  0  0
 15 34  1  0  0  0  0
 16 35  1  0  0  0  0
 16 36  1  0  0  0  0
 16 37  1  0  0  0  0
 17 38  1  0  0  0  0
M  END
>  <Substance ID> (503)
503

>  <Mouse_Female_Canc> (503)
ND

>  <SAL> (503)
ND

>  <Rat_Male_Canc> (503)
ND

>  <TD50_Rat> (503)
40

>  <TD50_Mouse> (503)
ND

>  <Rat_Female_Canc> (503)
3

>  <Canc> (503)
3

>  <MolWeight> (503)
239.31

>  <Mouse_Male_Canc> (503)
ND

>  <Mouse_Male_NTP> (503)
ND

>  <ChemName> (503)
Salbutamol

>  <Rat_Male_NTP> (503)
ND

>  <Reference> (503)
CPDB

>  <Formula> (503)
C13H21NO3

>  <SMILES> (503)
OC(C1=CC=C(C(=C1)CO)O)CNC(C)(C)C

>  <Rat_Female_NTP> (503)
ND

>  <CAS> (503)
18559-94-9

>  <Mouse_Female_NTP> (503)
ND

>  <Synonyms> (503)
(alpha1-((tert-butylamino)methyl)-4-hydroxy-m-xylene-alpha,alpha-diol); Aerolin; Albuterol; Asmol; Proventil; Respax; Respolin; Sabutamol; Salbulin; Ventodisks; Ventolin.

$$$$
504


 23 24  0  0  0  0  0  0  0  0999 V2000
   10.3736  -55.7988   -0.0026 C   0  0  0  0  0  0  0  0  0  0  0  0
   11.3393  -57.2438   -0.0176 S   0  0  0  0  0  0  0  0  0  0  0  0
   12.7628  -56.2313   -0.0009 C   0  0  0  0  0  0  0  0  0  0  0  0
   12.4590  -54.9909    0.0091 N   0  0  0  0  0  0  0  0  0  0  0  0
   11.0966  -54.7453    0.0078 N   0  0  0  0  0  0  0  0  0  0  0  0
    8.0410  -56.8895    0.0016 O   0  0  0  0  0  0  0  0  0  0  0  0
    8.8970  -55.7509   -0.0019 C   0  0  0  0  0  0  0  0  0  0  0  0
    8.2334  -54.6010   -0.0048 C   0  0  0  0  0  0  0  0  0  0  0  0
    6.8498  -54.9182   -0.0045 C   0  0  0  0  0  0  0  0  0  0  0  0
    6.7650  -56.2409    0.0001 C   0  0  0  0  0  0  0  0  0  0  0  0
   14.0890  -56.7159    0.0012 N   0  0  0  0  0  0  0  0  0  0  0  0
   15.1941  -55.8316    0.0015 C   0  0  0  0  0  0  0  0  0  0  0  0
   16.5907  -56.3813    0.0028 C   0  0  0  0  0  0  0  0  0  0  0  0
   15.0255  -54.6068   -0.0019 O   0  0  0  0  0  0  0  0  0  0  0  0
    5.5382  -56.9085    0.0029 N   0  3  0  0  0  0  0  0  0  0  0  0
    4.4121  -56.2098    0.0031 O   0  5  0  0  0  0  0  0  0  0  0  0
    5.5051  -58.0817    0.0047 O   0  0  0  0  0  0  0  0  0  0  0  0
    8.6330  -53.6843   -0.0069 H   0  0  0  0  0  0  0  0  0  0  0  0
    6.0880  -54.2704   -0.0071 H   0  0  0  0  0  0  0  0  0  0  0  0
   14.2505  -57.7028    0.0026 H   0  0  0  0  0  0  0  0  0  0  0  0
   17.2465  -55.6264    0.0028 H   0  0  0  0  0  0  0  0  0  0  0  0
   16.7292  -56.9425   -0.8132 H   0  0  0  0  0  0  0  0  0  0  0  0
   16.7281  -56.9416    0.8196 H   0  0  0  0  0  0  0  0  0  0  0  0
  1  2  1  0  0  0  0
  2  3  1  0  0  0  0
  3  4  2  0  0  0  0
  4  5  1  0  0  0  0
  5  1  2  0  0  0  0
  9 10  2  0  0  0  0
  7  8  2  0  0  0  0
  6  7  1  0  0  0  0
  8  9  1  0  0  0  0
 10  6  1  0  0  0  0
  7  1  1  0  0  0  0
  3 11  1  0  0  0  0
 11 12  1  0  0  0  0
 12 13  1  0  0  0  0
 12 14  2  0  0  0  0
 10 15  1  0  0  0  0
 15 16  1  0  0  0  0
 15 17  2  0  0  0  0
  8 18  1  0  0  0  0
  9 19  1  0  0  0  0
 11 20  1  0  0  0  0
 13 21  1  0  0  0  0
 13 22  1  0  0  0  0
 13 23  1  0  0  0  0
M  END
>  <Substance ID> (504)
504

>  <Mouse_Female_Canc> (504)
3

>  <SAL> (504)
3

>  <Rat_Male_Canc> (504)
ND

>  <TD50_Rat> (504)
8.84

>  <TD50_Mouse> (504)
6.74

>  <Rat_Female_Canc> (504)
3

>  <Canc> (504)
3

>  <MolWeight> (504)
254.22

>  <Mouse_Male_Canc> (504)
ND

>  <Mouse_Male_NTP> (504)
ND

>  <ChemName> (504)
N-[5-(5-nitro-2-furyl)-1,3,4-thiadiazol-2-yl]acetamide

>  <Rat_Male_NTP> (504)
ND

>  <Reference> (504)
CPDB

>  <Formula> (504)
C8H6N4O4S

>  <SMILES> (504)
CC(=O)NC1=NN=C(S1)C2=CC=C(O2)[N+]([O-])=O

>  <Rat_Female_NTP> (504)
ND

>  <CAS> (504)
2578-75-8

>  <Mouse_Female_NTP> (504)
ND

>  <Synonyms> (504)
-

$$$$
505


 36 38  0  0  0  0  0  0  0  0999 V2000
    7.9775  -69.0852   -0.0450 C   0  0  0  0  0  0  0  0  0  0  0  0
    8.6644  -68.0359    0.1131 N   0  0  0  0  0  0  0  0  0  0  0  0
    7.8223  -67.0074    0.2566 N   0  0  0  0  0  0  0  0  0  0  0  0
    5.0737  -66.6637    0.0892 C   0  0  0  0  0  0  0  0  0  0  0  0
    3.9130  -67.1920    0.1580 N   0  0  0  0  0  0  0  0  0  0  0  0
    3.4215  -68.5475    0.2568 C   0  0  0  0  0  0  0  0  0  0  0  0
    6.4252  -67.4709    0.0968 C   0  0  0  0  0  0  0  0  0  0  0  0
    6.5700  -68.7866   -0.0399 C   0  0  0  0  0  0  0  0  0  0  0  0
    5.6307  -69.8161   -0.1798 N   0  0  0  0  0  0  0  0  0  0  0  0
    4.2361  -69.7530   -0.0854 C   0  0  0  0  0  0  0  0  0  0  0  0
    4.9385  -65.1515   -0.0485 C   0  0  0  0  0  0  0  0  0  0  0  0
    5.9146  -64.3471   -0.4538 C   0  0  0  0  0  0  0  0  0  0  0  0
    4.5464  -62.3691   -0.2722 C   0  0  0  0  0  0  0  0  0  0  0  0
    3.4467  -63.2346    0.1460 C   0  0  0  0  0  0  0  0  0  0  0  0
    5.7252  -62.9050   -0.5660 C   0  0  0  0  0  0  0  0  0  0  0  0
    3.6294  -64.5516    0.2463 C   0  0  0  0  0  0  0  0  0  0  0  0
    8.5550  -70.4590   -0.2173 C   0  0  0  0  0  0  0  0  0  0  0  0
    3.6250  -70.8142   -0.2439 O   0  0  0  0  0  0  0  0  0  0  0  0
    8.3235  -65.7385    0.7052 C   0  0  0  0  0  0  0  0  0  0  0  0
    9.6992  -65.4587    0.0810 C   0  0  0  0  0  0  0  0  0  0  0  0
    3.1449  -68.6677    1.2102 H   0  0  0  0  0  0  0  0  0  0  0  0
    2.6147  -68.5880   -0.3325 H   0  0  0  0  0  0  0  0  0  0  0  0
    6.0090  -70.7212   -0.3739 H   0  0  0  0  0  0  0  0  0  0  0  0
    6.8034  -64.7406   -0.6884 H   0  0  0  0  0  0  0  0  0  0  0  0
    4.4125  -61.3802   -0.3367 H   0  0  0  0  0  0  0  0  0  0  0  0
    2.5535  -62.8380    0.3579 H   0  0  0  0  0  0  0  0  0  0  0  0
    6.4810  -62.3217   -0.8635 H   0  0  0  0  0  0  0  0  0  0  0  0
    2.8680  -65.1371    0.5248 H   0  0  0  0  0  0  0  0  0  0  0  0
    7.8138  -71.1217   -0.3243 H   0  0  0  0  0  0  0  0  0  0  0  0
    9.0994  -70.6956    0.5875 H   0  0  0  0  0  0  0  0  0  0  0  0
    9.1373  -70.4768   -1.0301 H   0  0  0  0  0  0  0  0  0  0  0  0
    7.6857  -65.0175    0.4346 H   0  0  0  0  0  0  0  0  0  0  0  0
    8.4098  -65.7514    1.7014 H   0  0  0  0  0  0  0  0  0  0  0  0
   10.0370  -64.5735    0.4007 H   0  0  0  0  0  0  0  0  0  0  0  0
    9.6167  -65.4433   -0.9155 H   0  0  0  0  0  0  0  0  0  0  0  0
   10.3406  -66.1770    0.3509 H   0  0  0  0  0  0  0  0  0  0  0  0
  1  2  2  0  0  0  0
  2  3  1  0  0  0  0
  3  7  1  0  0  0  0
  8  1  1  0  0  0  0
  4  5  2  0  0  0  0
  5  6  1  0  0  0  0
  4  7  1  0  0  0  0
  8  9  1  0  0  0  0
  9 10  1  0  0  0  0
 10  6  1  0  0  0  0
  7  8  2  0  0  0  0
  4 11  1  0  0  0  0
 11 12  2  0  0  0  0
 13 14  1  0  0  0  0
 11 16  1  0  0  0  0
 12 15  1  0  0  0  0
 15 13  2  0  0  0  0
 14 16  2  0  0  0  0
  1 17  1  0  0  0  0
 10 18  2  0  0  0  0
  3 19  1  0  0  0  0
 19 20  1  0  0  0  0
  6 21  1  0  0  0  0
  6 22  1  0  0  0  0
  9 23  1  0  0  0  0
 12 24  1  0  0  0  0
 13 25  1  0  0  0  0
 14 26  1  0  0  0  0
 15 27  1  0  0  0  0
 16 28  1  0  0  0  0
 17 29  1  0  0  0  0
 17 30  1  0  0  0  0
 17 31  1  0  0  0  0
 19 32  1  0  0  0  0
 19 33  1  0  0  0  0
 20 34  1  0  0  0  0
 20 35  1  0  0  0  0
 20 36  1  0  0  0  0
M  END
>  <Substance ID> (505)
505

>  <Mouse_Female_Canc> (505)
3

>  <SAL> (505)
ND

>  <Rat_Male_Canc> (505)
1

>  <TD50_Rat> (505)
NP

>  <TD50_Mouse> (505)
114

>  <Rat_Female_Canc> (505)
1

>  <Canc> (505)
3

>  <MolWeight> (505)
268.32

>  <Mouse_Male_Canc> (505)
3

>  <Mouse_Male_NTP> (505)
ND

>  <ChemName> (505)
Ripazepam

>  <Rat_Male_NTP> (505)
ND

>  <Reference> (505)
CPDB

>  <Formula> (505)
C15H16N4O

>  <SMILES> (505)
O=C1Nc3c(\C(=N/C1)c2ccccc2)n(nc3C)CC

>  <Rat_Female_NTP> (505)
ND

>  <CAS> (505)
26308-28-1

>  <Mouse_Female_NTP> (505)
ND

>  <Synonyms> (505)
Pyrazapon.

$$$$
506


 24 25  0  0  0  0  0  0  0  0999 V2000
    9.8835  -79.8763    0.0018 C   0  0  0  0  0  0  0  0  0  0  0  0
   10.8415  -80.9615   -0.0032 N   0  0  0  0  0  0  0  0  0  0  0  0
   12.0511  -80.5266    0.0008 C   0  0  0  0  0  0  0  0  0  0  0  0
   12.1268  -78.7859    0.0134 S   0  0  0  0  0  0  0  0  0  0  0  0
   10.4167  -78.6525    0.0100 C   0  0  0  0  0  0  0  0  0  0  0  0
    7.7319  -81.2719    0.0021 O   0  0  0  0  0  0  0  0  0  0  0  0
    8.4293  -80.0355   -0.0024 C   0  0  0  0  0  0  0  0  0  0  0  0
    7.6277  -78.9792   -0.0107 C   0  0  0  0  0  0  0  0  0  0  0  0
    6.3049  -79.4620   -0.0125 C   0  0  0  0  0  0  0  0  0  0  0  0
    6.3881  -80.7830   -0.0041 C   0  0  0  0  0  0  0  0  0  0  0  0
   13.2032  -81.3425   -0.0057 N   0  0  0  0  0  0  0  0  0  0  0  0
   14.5063  -80.7669    0.0026 C   0  0  0  0  0  0  0  0  0  0  0  0
   15.7151  -81.6496   -0.0126 C   0  0  0  0  0  0  0  0  0  0  0  0
   14.6615  -79.5399    0.0221 O   0  0  0  0  0  0  0  0  0  0  0  0
    5.2610  -81.5883   -0.0010 N   0  3  0  0  0  0  0  0  0  0  0  0
    4.0617  -81.0261   -0.0128 O   0  5  0  0  0  0  0  0  0  0  0  0
    5.3682  -82.7556    0.0135 O   0  0  0  0  0  0  0  0  0  0  0  0
    9.9018  -77.7953    0.0136 H   0  0  0  0  0  0  0  0  0  0  0  0
    7.9097  -78.0198   -0.0149 H   0  0  0  0  0  0  0  0  0  0  0  0
    5.4679  -78.9149   -0.0188 H   0  0  0  0  0  0  0  0  0  0  0  0
   13.1033  -82.3375   -0.0162 H   0  0  0  0  0  0  0  0  0  0  0  0
   16.5405  -81.0853   -0.0041 H   0  0  0  0  0  0  0  0  0  0  0  0
   15.7061  -82.2139   -0.8381 H   0  0  0  0  0  0  0  0  0  0  0  0
   15.7073  -82.2401    0.7945 H   0  0  0  0  0  0  0  0  0  0  0  0
  1  2  1  0  0  0  0
  2  3  2  0  0  0  0
  3  4  1  0  0  0  0
  4  5  1  0  0  0  0
  5  1  2  0  0  0  0
  9 10  2  0  0  0  0
  7  8  2  0  0  0  0
  6  7  1  0  0  0  0
  8  9  1  0  0  0  0
 10  6  1  0  0  0  0
  7  1  1  0  0  0  0
  3 11  1  0  0  0  0
 11 12  1  0  0  0  0
 12 13  1  0  0  0  0
 12 14  2  0  0  0  0
 10 15  1  0  0  0  0
 15 16  1  0  0  0  0
 15 17  2  0  0  0  0
  5 18  1  0  0  0  0
  8 19  1  0  0  0  0
  9 20  1  0  0  0  0
 11 21  1  0  0  0  0
 13 22  1  0  0  0  0
 13 23  1  0  0  0  0
 13 24  1  0  0  0  0
M  END
>  <Substance ID> (506)
506

>  <Mouse_Female_Canc> (506)
ND

>  <SAL> (506)
3

>  <Rat_Male_Canc> (506)
ND

>  <TD50_Rat> (506)
17.8

>  <TD50_Mouse> (506)
ND

>  <Rat_Female_Canc> (506)
3

>  <Canc> (506)
3

>  <MolWeight> (506)
253.23

>  <Mouse_Male_Canc> (506)
ND

>  <Mouse_Male_NTP> (506)
ND

>  <ChemName> (506)
N-(4-(5 nitro-2-furyl)-2-thiazolyl)acetamide

>  <Rat_Male_NTP> (506)
ND

>  <Reference> (506)
CPDB

>  <Formula> (506)
C9H7N3O4S

>  <SMILES> (506)
O=C(Nc2nc(c1oc([N+]([O-])=O)cc1)cs2)C

>  <Rat_Female_NTP> (506)
ND

>  <CAS> (506)
531-82-8

>  <Mouse_Female_NTP> (506)
ND

>  <Synonyms> (506)
FURATHIAZOLE; Furium; NFTA.

$$$$
507
 

 19 18  0  0  0  0  0  0  0  0999 V2000
    1.3984  -89.8977    0.0639 C   0  0  0  0  0  0  0  0  0  0  0  0
    2.5959  -89.3733    0.3140 C   0  0  0  0  0  0  0  0  0  0  0  0
    3.8187  -89.9544   -0.3319 C   0  0  0  0  0  0  0  0  0  0  0  0
    4.9960  -89.1850    0.0805 N   0  0  0  0  0  0  0  0  0  0  0  0
    6.3140  -89.7535   -0.3229 C   0  0  0  0  0  0  0  0  0  0  0  0
    7.4935  -89.1483    0.4750 C   0  0  0  0  0  0  0  0  0  0  0  0
    8.7169  -89.7457    0.0380 O   0  0  0  0  0  0  0  0  0  0  0  0
    4.8120  -87.8198   -0.1042 N   0  0  0  0  0  0  0  0  0  0  0  0
    5.7039  -87.0624   -0.2118 O   0  0  0  0  0  0  0  0  0  0  0  0
    0.5832  -89.5104    0.4944 H   0  0  0  0  0  0  0  0  0  0  0  0
    1.3140  -90.6790   -0.5545 H   0  0  0  0  0  0  0  0  0  0  0  0
    2.6804  -88.5920    0.9324 H   0  0  0  0  0  0  0  0  0  0  0  0
    3.9259  -90.9071   -0.0475 H   0  0  0  0  0  0  0  0  0  0  0  0
    3.7234  -89.9116   -1.3265 H   0  0  0  0  0  0  0  0  0  0  0  0
    6.2970  -90.7414   -0.1689 H   0  0  0  0  0  0  0  0  0  0  0  0
    6.4577  -89.5697   -1.2953 H   0  0  0  0  0  0  0  0  0  0  0  0
    7.5300  -88.1611    0.3194 H   0  0  0  0  0  0  0  0  0  0  0  0
    7.3640  -89.3280    1.4501 H   0  0  0  0  0  0  0  0  0  0  0  0
    9.4809  -89.3562    0.5523 H   0  0  0  0  0  0  0  0  0  0  0  0
  1  2  2  0  0  0  0
  2  3  1  0  0  0  0
  3  4  1  0  0  0  0
  4  5  1  0  0  0  0
  5  6  1  0  0  0  0
  6  7  1  0  0  0  0
  4  8  1  0  0  0  0
  8  9  2  0  0  0  0
  1 10  1  0  0  0  0
  1 11  1  0  0  0  0
  2 12  1  0  0  0  0
  3 13  1  0  0  0  0
  3 14  1  0  0  0  0
  5 15  1  0  0  0  0
  5 16  1  0  0  0  0
  6 17  1  0  0  0  0
  6 18  1  0  0  0  0
  7 19  1  0  0  0  0
M  END
>  <Substance ID> (507)
507

>  <Mouse_Female_Canc> (507)
ND

>  <SAL> (507)
ND

>  <Rat_Male_Canc> (507)
ND

>  <TD50_Rat> (507)
0.491

>  <TD50_Mouse> (507)
ND

>  <Rat_Female_Canc> (507)
3

>  <Canc> (507)
3

>  <MolWeight> (507)
130.15

>  <Mouse_Male_Canc> (507)
ND

>  <Mouse_Male_NTP> (507)
ND

>  <ChemName> (507)
N-nitrosoallylethanolamine

>  <Rat_Male_NTP> (507)
ND

>  <Reference> (507)
CPDB

>  <Formula> (507)
C5H10N2O2

>  <SMILES> (507)
N(CC=C)(CCO)N=O

>  <Rat_Female_NTP> (507)
ND

>  <CAS> (507)
91308-69-9

>  <Mouse_Female_NTP> (507)
ND

>  <Synonyms> (507)
-

$$$$
508
  

 24 26  0  0  0  0  0  0  0  0999 V2000
   37.5712  -10.4132    0.0023 N   0  0  0  0  0  0  0  0  0  0  0  0
   38.2181   -9.1274    0.0016 C   0  0  0  0  0  0  0  0  0  0  0  0
   37.2480   -8.2095    0.0009 C   0  0  0  0  0  0  0  0  0  0  0  0
   34.7371   -8.4034   -0.0097 C   0  0  0  0  0  0  0  0  0  0  0  0
   33.7279   -9.2773   -0.0118 C   0  0  0  0  0  0  0  0  0  0  0  0
   33.9998  -10.7410   -0.0049 C   0  0  0  0  0  0  0  0  0  0  0  0
   35.2577  -11.1909    0.0010 C   0  0  0  0  0  0  0  0  0  0  0  0
   36.3129  -10.2032    0.0008 C   0  0  0  0  0  0  0  0  0  0  0  0
   36.0446   -8.8925   -0.0019 N   0  0  0  0  0  0  0  0  0  0  0  0
   37.4549   -6.7302    0.0039 C   0  0  0  0  0  0  0  0  0  0  0  0
   38.7342   -6.1199   -0.0080 O   0  0  0  0  0  0  0  0  0  0  0  0
   38.3579   -4.7512    0.0013 C   0  0  0  0  0  0  0  0  0  0  0  0
   37.0499   -4.5600    0.0188 C   0  0  0  0  0  0  0  0  0  0  0  0
   36.4665   -5.8407    0.0195 C   0  0  0  0  0  0  0  0  0  0  0  0
   39.2595   -3.7022   -0.0026 N   0  3  0  0  0  0  0  0  0  0  0  0
   40.5538   -3.9462   -0.0195 O   0  5  0  0  0  0  0  0  0  0  0  0
   38.8624   -2.5969    0.0087 O   0  0  0  0  0  0  0  0  0  0  0  0
   39.2031   -8.9549    0.0017 H   0  0  0  0  0  0  0  0  0  0  0  0
   34.5601   -7.4192   -0.0136 H   0  0  0  0  0  0  0  0  0  0  0  0
   32.7841   -8.9469   -0.0180 H   0  0  0  0  0  0  0  0  0  0  0  0
   33.2385  -11.3894   -0.0047 H   0  0  0  0  0  0  0  0  0  0  0  0
   35.4607  -12.1700    0.0055 H   0  0  0  0  0  0  0  0  0  0  0  0
   36.5713   -3.6820    0.0294 H   0  0  0  0  0  0  0  0  0  0  0  0
   35.4876   -6.0445    0.0298 H   0  0  0  0  0  0  0  0  0  0  0  0
  1  2  1  0  0  0  0
  2  3  2  0  0  0  0
  3  9  1  0  0  0  0
  8  1  2  0  0  0  0
  9  4  1  0  0  0  0
  4  5  2  0  0  0  0
  5  6  1  0  0  0  0
  6  7  2  0  0  0  0
  7  8  1  0  0  0  0
  8  9  1  0  0  0  0
  3 10  1  0  0  0  0
 10 11  1  0  0  0  0
 11 12  1  0  0  0  0
 12 13  2  0  0  0  0
 13 14  1  0  0  0  0
 14 10  2  0  0  0  0
 12 15  1  0  0  0  0
 15 16  1  0  0  0  0
 15 17  2  0  0  0  0
  2 18  1  0  0  0  0
  4 19  1  0  0  0  0
  5 20  1  0  0  0  0
  6 21  1  0  0  0  0
  7 22  1  0  0  0  0
 13 23  1  0  0  0  0
 14 24  1  0  0  0  0
M  END
>  <Substance ID> (508)
508

>  <Mouse_Female_Canc> (508)
3

>  <SAL> (508)
ND

>  <Rat_Male_Canc> (508)
3

>  <TD50_Rat> (508)
13.6

>  <TD50_Mouse> (508)
27

>  <Rat_Female_Canc> (508)
3

>  <Canc> (508)
3

>  <MolWeight> (508)
229.19

>  <Mouse_Male_Canc> (508)
3

>  <Mouse_Male_NTP> (508)
ND

>  <ChemName> (508)
3-(5-Nitro-2-furyl)-imidazo(1,2-a)pyridine

>  <Rat_Male_NTP> (508)
ND

>  <Reference> (508)
CPDB

>  <Formula> (508)
C11H7N3O3

>  <SMILES> (508)
O=[N+]([O-])c3oc(c1n2ccccc2nc1)cc3

>  <Rat_Female_NTP> (508)
ND

>  <CAS> (508)
75198-31-1

>  <Mouse_Female_NTP> (508)
ND

>  <Synonyms> (508)
-

$$$$
509


 20 19  0  0  0  0  0  0  0  0999 V2000
   32.7246  -15.9452    0.1174 C   0  0  0  0  0  0  0  0  0  0  0  0
   31.3716  -15.3550   -0.1535 C   0  0  0  0  0  0  0  0  0  0  0  0
   30.1393  -16.0373    0.3664 C   0  0  0  0  0  0  0  0  0  0  0  0
   28.9388  -15.2707    0.0000 N   0  0  0  0  0  0  0  0  0  0  0  0
   27.6416  -15.9439    0.2682 C   0  0  0  0  0  0  0  0  0  0  0  0
   26.4920  -15.2770   -0.4438 C   0  0  0  0  0  0  0  0  0  0  0  0
   25.2513  -15.7256   -0.2676 C   0  0  0  0  0  0  0  0  0  0  0  0
   29.0265  -13.9394    0.3808 N   0  0  0  0  0  0  0  0  0  0  0  0
   28.0769  -13.2646    0.5427 O   0  0  0  0  0  0  0  0  0  0  0  0
   31.2759  -14.3113   -0.8102 O   0  0  0  0  0  0  0  0  0  0  0  0
   33.4291  -15.3690   -0.2967 H   0  0  0  0  0  0  0  0  0  0  0  0
   32.7727  -16.8637   -0.2750 H   0  0  0  0  0  0  0  0  0  0  0  0
   32.8747  -15.9967    1.1048 H   0  0  0  0  0  0  0  0  0  0  0  0
   30.0784  -16.9540   -0.0285 H   0  0  0  0  0  0  0  0  0  0  0  0
   30.1956  -16.1059    1.3624 H   0  0  0  0  0  0  0  0  0  0  0  0
   27.7028  -16.8935   -0.0394 H   0  0  0  0  0  0  0  0  0  0  0  0
   27.4659  -15.9225    1.2524 H   0  0  0  0  0  0  0  0  0  0  0  0
   26.6615  -14.4984   -1.0479 H   0  0  0  0  0  0  0  0  0  0  0  0
   24.4882  -15.2839   -0.7394 H   0  0  0  0  0  0  0  0  0  0  0  0
   25.0822  -16.5043    0.3366 H   0  0  0  0  0  0  0  0  0  0  0  0
  1  2  1  0  0  0  0
  2  3  1  0  0  0  0
  3  4  1  0  0  0  0
  4  5  1  0  0  0  0
  6  5  1  0  0  0  0
  6  7  2  0  0  0  0
  4  8  1  0  0  0  0
  8  9  2  0  0  0  0
  2 10  2  0  0  0  0
  1 11  1  0  0  0  0
  1 12  1  0  0  0  0
  1 13  1  0  0  0  0
  3 14  1  0  0  0  0
  3 15  1  0  0  0  0
  5 16  1  0  0  0  0
  5 17  1  0  0  0  0
  6 18  1  0  0  0  0
  7 19  1  0  0  0  0
  7 20  1  0  0  0  0
M  END
>  <Substance ID> (509)
509

>  <Mouse_Female_Canc> (509)
ND

>  <SAL> (509)
ND

>  <Rat_Male_Canc> (509)
ND

>  <TD50_Rat> (509)
0.335

>  <TD50_Mouse> (509)
ND

>  <Rat_Female_Canc> (509)
3

>  <Canc> (509)
3

>  <MolWeight> (509)
142.16

>  <Mouse_Male_Canc> (509)
ND

>  <Mouse_Male_NTP> (509)
ND

>  <ChemName> (509)
N-nitrosoallyl-2-oxopropylamine

>  <Rat_Male_NTP> (509)
ND

>  <Reference> (509)
CPDB

>  <Formula> (509)
C6H10N2O2

>  <SMILES> (509)
N(CC(C)=O)(CC=C)N=O

>  <Rat_Female_NTP> (509)
ND

>  <CAS> (509)
91308-71-3

>  <Mouse_Female_NTP> (509)
ND

>  <Synonyms> (509)
-

$$$$
510
 

 32 33  0  0  0  0  0  0  0  0999 V2000
   55.9902  -18.4539    0.0224 C   0  0  0  0  0  0  0  0  0  0  0  0
   56.5685  -19.5842    0.0025 N   0  0  0  0  0  0  0  0  0  0  0  0
   58.6657  -18.5754   -0.0295 N   0  0  0  0  0  0  0  0  0  0  0  0
   58.0014  -17.3178   -0.0106 C   0  0  0  0  0  0  0  0  0  0  0  0
   57.9833  -19.6605   -0.0255 C   0  0  0  0  0  0  0  0  0  0  0  0
   56.7335  -17.2930    0.0151 N   0  0  0  0  0  0  0  0  0  0  0  0
   53.6442  -19.4339    0.0236 O   0  0  0  0  0  0  0  0  0  0  0  0
   54.5368  -18.3394    0.0363 C   0  0  0  0  0  0  0  0  0  0  0  0
   53.9271  -17.1603    0.0532 C   0  0  0  0  0  0  0  0  0  0  0  0
   52.5379  -17.4185    0.0510 C   0  0  0  0  0  0  0  0  0  0  0  0
   52.4046  -18.7367    0.0324 C   0  0  0  0  0  0  0  0  0  0  0  0
   58.6763  -16.0441   -0.0466 N   0  0  0  0  0  0  0  0  0  0  0  0
   60.0831  -15.7902   -0.0486 C   0  0  0  0  0  0  0  0  0  0  0  0
   61.0953  -16.8588    0.1271 C   0  0  0  0  0  0  0  0  0  0  0  0
   58.5947  -20.9720   -0.0740 N   0  0  0  0  0  0  0  0  0  0  0  0
   60.0008  -21.2862   -0.0273 C   0  0  0  0  0  0  0  0  0  0  0  0
   61.0492  -20.2742    0.2736 C   0  0  0  0  0  0  0  0  0  0  0  0
   60.3631  -22.4520   -0.2263 O   0  0  0  0  0  0  0  0  0  0  0  0
   60.4808  -14.6279   -0.1921 O   0  0  0  0  0  0  0  0  0  0  0  0
   51.1651  -19.3593    0.0197 N   0  3  0  0  0  0  0  0  0  0  0  0
   50.0645  -18.6252    0.0205 O   0  5  0  0  0  0  0  0  0  0  0  0
   51.0966  -20.5302    0.0046 O   0  0  0  0  0  0  0  0  0  0  0  0
   54.3665  -16.2621    0.0652 H   0  0  0  0  0  0  0  0  0  0  0  0
   51.8020  -16.7415    0.0615 H   0  0  0  0  0  0  0  0  0  0  0  0
   58.0862  -15.2371   -0.0735 H   0  0  0  0  0  0  0  0  0  0  0  0
   62.0114  -16.4596    0.0927 H   0  0  0  0  0  0  0  0  0  0  0  0
   60.9986  -17.5337   -0.6046 H   0  0  0  0  0  0  0  0  0  0  0  0
   60.9595  -17.3050    1.0117 H   0  0  0  0  0  0  0  0  0  0  0  0
   57.9698  -21.7491   -0.1484 H   0  0  0  0  0  0  0  0  0  0  0  0
   61.9491  -20.7097    0.2535 H   0  0  0  0  0  0  0  0  0  0  0  0
   60.8876  -19.8859    1.1809 H   0  0  0  0  0  0  0  0  0  0  0  0
   61.0164  -19.5460   -0.4109 H   0  0  0  0  0  0  0  0  0  0  0  0
  1  2  2  0  0  0  0
  3  4  1  0  0  0  0
  1  6  1  0  0  0  0
  2  5  1  0  0  0  0
  5  3  2  0  0  0  0
  4  6  2  0  0  0  0
 10 11  2  0  0  0  0
  8  9  2  0  0  0  0
  7  8  1  0  0  0  0
  9 10  1  0  0  0  0
 11  7  1  0  0  0  0
  8  1  1  0  0  0  0
  4 12  1  0  0  0  0
 12 13  1  0  0  0  0
 13 14  1  0  0  0  0
  5 15  1  0  0  0  0
 15 16  1  0  0  0  0
 16 17  1  0  0  0  0
 16 18  2  0  0  0  0
 13 19  2  0  0  0  0
 11 20  1  0  0  0  0
 20 21  1  0  0  0  0
 20 22  2  0  0  0  0
  9 23  1  0  0  0  0
 10 24  1  0  0  0  0
 12 25  1  0  0  0  0
 14 26  1  0  0  0  0
 14 27  1  0  0  0  0
 14 28  1  0  0  0  0
 15 29  1  0  0  0  0
 17 30  1  0  0  0  0
 17 31  1  0  0  0  0
 17 32  1  0  0  0  0
M  END
>  <Substance ID> (510)
510

>  <Mouse_Female_Canc> (510)
ND

>  <SAL> (510)
3

>  <Rat_Male_Canc> (510)
ND

>  <TD50_Rat> (510)
14.1

>  <TD50_Mouse> (510)
ND

>  <Rat_Female_Canc> (510)
3

>  <Canc> (510)
3

>  <MolWeight> (510)
306.24

>  <Mouse_Male_Canc> (510)
ND

>  <Mouse_Male_NTP> (510)
ND

>  <ChemName> (510)
N,N'-[6-(5-nitro-2-furyl)-s-triazine-2,4-diyl]bisacetamide

>  <Rat_Male_NTP> (510)
ND

>  <Reference> (510)
CPDB

>  <Formula> (510)
C11H10N6O5

>  <SMILES> (510)
C1(=NC(=NC(=N1)NC(C)=O)C2=CC=C(O2)[N+](=O)[O-])NC(C)=O

>  <Rat_Female_NTP> (510)
ND

>  <CAS> (510)
51325-35-0

>  <Mouse_Female_NTP> (510)
ND

>  <Synonyms> (510)
-

$$$$
511
 

 29 28  0  0  0  0  0  0  0  0999 V2000
   35.5695  -32.3331   -0.0028 C   0  0  0  0  0  0  0  0  0  0  0  0
   34.3070  -31.7196   -0.0192 N   0  0  0  0  0  0  0  0  0  0  0  0
   33.1258  -32.5347   -0.0043 C   0  0  0  0  0  0  0  0  0  0  0  0
   31.8720  -31.6424   -0.0058 C   0  0  0  0  0  0  0  0  0  0  0  0
   30.6174  -32.5360    0.0133 C   0  0  0  0  0  0  0  0  0  0  0  0
   29.3520  -31.6591   -0.0053 C   0  0  0  0  0  0  0  0  0  0  0  0
   28.1036  -32.5622    0.0048 C   0  0  0  0  0  0  0  0  0  0  0  0
   35.6476  -33.5663    0.0188 O   0  0  0  0  0  0  0  0  0  0  0  0
   36.7370  -31.5722   -0.0112 O   0  0  0  0  0  0  0  0  0  0  0  0
   37.8674  -32.4436    0.0084 C   0  0  0  0  0  0  0  0  0  0  0  0
   39.1638  -31.6166    0.0018 C   0  0  0  0  0  0  0  0  0  0  0  0
   34.1939  -30.3888   -0.0352 N   0  0  0  0  0  0  0  0  0  0  0  0
   35.1452  -29.7022    0.0401 O   0  0  0  0  0  0  0  0  0  0  0  0
   33.1169  -33.1199   -0.8151 H   0  0  0  0  0  0  0  0  0  0  0  0
   33.1264  -33.1038    0.8180 H   0  0  0  0  0  0  0  0  0  0  0  0
   31.8775  -31.0558    0.8041 H   0  0  0  0  0  0  0  0  0  0  0  0
   31.8661  -31.0747   -0.8290 H   0  0  0  0  0  0  0  0  0  0  0  0
   30.6211  -33.1304   -0.7908 H   0  0  0  0  0  0  0  0  0  0  0  0
   30.6212  -33.0956    0.8421 H   0  0  0  0  0  0  0  0  0  0  0  0
   29.3433  -31.0689    0.8019 H   0  0  0  0  0  0  0  0  0  0  0  0
   29.3491  -31.0952   -0.8312 H   0  0  0  0  0  0  0  0  0  0  0  0
   27.2807  -31.9942   -0.0073 H   0  0  0  0  0  0  0  0  0  0  0  0
   28.1065  -33.1264    0.8304 H   0  0  0  0  0  0  0  0  0  0  0  0
   28.1123  -33.1528   -0.8022 H   0  0  0  0  0  0  0  0  0  0  0  0
   37.8375  -33.0071    0.8340 H   0  0  0  0  0  0  0  0  0  0  0  0
   37.8458  -33.0331   -0.7991 H   0  0  0  0  0  0  0  0  0  0  0  0
   39.9521  -32.2316    0.0156 H   0  0  0  0  0  0  0  0  0  0  0  0
   39.1876  -31.0268    0.8091 H   0  0  0  0  0  0  0  0  0  0  0  0
   39.1959  -31.0528   -0.8235 H   0  0  0  0  0  0  0  0  0  0  0  0
  1  2  1  0  0  0  0
  2  3  1  0  0  0  0
  3  4  1  0  0  0  0
  4  5  1  0  0  0  0
  6  5  1  0  0  0  0
  6  7  1  0  0  0  0
  1  8  2  0  0  0  0
  1  9  1  0  0  0  0
  9 10  1  0  0  0  0
 10 11  1  0  0  0  0
  2 12  1  0  0  0  0
 12 13  2  0  0  0  0
  3 14  1  0  0  0  0
  3 15  1  0  0  0  0
  4 16  1  0  0  0  0
  4 17  1  0  0  0  0
  5 18  1  0  0  0  0
  5 19  1  0  0  0  0
  6 20  1  0  0  0  0
  6 21  1  0  0  0  0
  7 22  1  0  0  0  0
  7 23  1  0  0  0  0
  7 24  1  0  0  0  0
 10 25  1  0  0  0  0
 10 26  1  0  0  0  0
 11 27  1  0  0  0  0
 11 28  1  0  0  0  0
 11 29  1  0  0  0  0
M  END
>  <Substance ID> (511)
511

>  <Mouse_Female_Canc> (511)
ND

>  <SAL> (511)
ND

>  <Rat_Male_Canc> (511)
ND

>  <TD50_Rat> (511)
1.01

>  <TD50_Mouse> (511)
ND

>  <Rat_Female_Canc> (511)
3

>  <Canc> (511)
3

>  <MolWeight> (511)
188.23

>  <Mouse_Male_Canc> (511)
ND

>  <Mouse_Male_NTP> (511)
ND

>  <ChemName> (511)
Nitrosoamylurethane

>  <Rat_Male_NTP> (511)
ND

>  <Reference> (511)
CPDB

>  <Formula> (511)
C8H16N2O3

>  <SMILES> (511)
O=C(N(CCCCC)N=O)OCC

>  <Rat_Female_NTP> (511)
ND

>  <CAS> (511)
64005-62-5

>  <Mouse_Female_NTP> (511)
ND

>  <Synonyms> (511)
1-Amyl-1-nitrosourethane.

$$$$
512
 

 20 19  0  0  0  0  0  0  0  0999 V2000
   36.0739  -40.8722   -0.0074 C   0  0  0  0  0  0  0  0  0  0  0  0
   34.6985  -40.2312   -0.0070 C   0  0  0  0  0  0  0  0  0  0  0  0
   33.5269  -40.8955   -0.0016 C   0  0  0  0  0  0  0  0  0  0  0  0
   32.2686  -39.9806   -0.0021 C   0  0  0  0  0  0  0  0  0  0  0  0
   30.8815  -40.6671   -0.0003 C   0  0  0  0  0  0  0  0  0  0  0  0
   37.1719  -39.7969   -0.0021 C   0  0  0  0  0  0  0  0  0  0  0  0
   33.4625  -42.3802    0.0041 N   0  3  0  0  0  0  0  0  0  0  0  0
   32.3203  -43.0403    0.0079 O   0  5  0  0  0  0  0  0  0  0  0  0
   34.4369  -43.0359    0.0053 O   0  0  0  0  0  0  0  0  0  0  0  0
   36.1701  -41.4439    0.8074 H   0  0  0  0  0  0  0  0  0  0  0  0
   36.1723  -41.4382   -0.8259 H   0  0  0  0  0  0  0  0  0  0  0  0
   34.6586  -39.2320   -0.0110 H   0  0  0  0  0  0  0  0  0  0  0  0
   32.3178  -39.4044    0.8138 H   0  0  0  0  0  0  0  0  0  0  0  0
   32.3168  -39.4066   -0.8195 H   0  0  0  0  0  0  0  0  0  0  0  0
   30.1643  -39.9703   -0.0008 H   0  0  0  0  0  0  0  0  0  0  0  0
   30.7919  -41.2365    0.8169 H   0  0  0  0  0  0  0  0  0  0  0  0
   30.7909  -41.2386   -0.8159 H   0  0  0  0  0  0  0  0  0  0  0  0
   38.0699  -40.2368   -0.0025 H   0  0  0  0  0  0  0  0  0  0  0  0
   37.0795  -39.2295    0.8162 H   0  0  0  0  0  0  0  0  0  0  0  0
   37.0817  -39.2238   -0.8166 H   0  0  0  0  0  0  0  0  0  0  0  0
  1  2  1  0  0  0  0
  2  3  2  0  0  0  0
  3  4  1  0  0  0  0
  4  5  1  0  0  0  0
  1  6  1  0  0  0  0
  3  7  1  0  0  0  0
  7  8  1  0  0  0  0
  7  9  2  0  0  0  0
  1 10  1  0  0  0  0
  1 11  1  0  0  0  0
  2 12  1  0  0  0  0
  4 13  1  0  0  0  0
  4 14  1  0  0  0  0
  5 15  1  0  0  0  0
  5 16  1  0  0  0  0
  5 17  1  0  0  0  0
  6 18  1  0  0  0  0
  6 19  1  0  0  0  0
  6 20  1  0  0  0  0
M  END
>  <Substance ID> (512)
512

>  <Mouse_Female_Canc> (512)
3

>  <SAL> (512)
ND

>  <Rat_Male_Canc> (512)
3

>  <TD50_Rat> (512)
8.66

>  <TD50_Mouse> (512)
0.346

>  <Rat_Female_Canc> (512)
3

>  <Canc> (512)
3

>  <MolWeight> (512)
129.16

>  <Mouse_Male_Canc> (512)
3

>  <Mouse_Male_NTP> (512)
ND

>  <ChemName> (512)
3-Nitro-3-hexene

>  <Rat_Male_NTP> (512)
ND

>  <Reference> (512)
CPDB

>  <Formula> (512)
C6H11NO2

>  <SMILES> (512)
CC/C(=C/CC)[N+](=O)[O-]

>  <Rat_Female_NTP> (512)
ND

>  <CAS> (512)
4812-22-0

>  <Mouse_Female_NTP> (512)
ND

>  <Synonyms> (512)
-

$$$$
513


 24 25  0  0  0  0  0  0  0  0999 V2000
   34.9397  -54.0556   -0.0267 S   0  0  0  0  0  0  0  0  0  0  0  0
   36.2868  -52.9205    0.0116 C   0  0  0  0  0  0  0  0  0  0  0  0
   35.9034  -51.6937    0.0314 N   0  0  0  0  0  0  0  0  0  0  0  0
   33.8363  -52.7381   -0.0136 C   0  0  0  0  0  0  0  0  0  0  0  0
   34.4725  -51.5797    0.0174 C   0  0  0  0  0  0  0  0  0  0  0  0
   32.3955  -50.3829    0.0118 C   0  0  0  0  0  0  0  0  0  0  0  0
   31.6917  -51.6946   -0.0243 C   0  0  0  0  0  0  0  0  0  0  0  0
   33.7317  -50.3292    0.0318 C   0  0  0  0  0  0  0  0  0  0  0  0
   32.3915  -52.8307   -0.0357 C   0  0  0  0  0  0  0  0  0  0  0  0
   37.6230  -53.3531    0.0132 N   0  0  0  0  0  0  0  0  0  0  0  0
   38.7345  -52.4909   -0.0031 C   0  0  0  0  0  0  0  0  0  0  0  0
   40.0332  -53.0388   -0.0170 N   0  0  0  0  0  0  0  0  0  0  0  0
   41.1704  -52.1668   -0.0653 C   0  0  0  0  0  0  0  0  0  0  0  0
   38.5881  -51.2616   -0.0145 O   0  0  0  0  0  0  0  0  0  0  0  0
   40.2241  -54.3698    0.0119 N   0  0  0  0  0  0  0  0  0  0  0  0
   39.3192  -55.1199    0.0697 O   0  0  0  0  0  0  0  0  0  0  0  0
   31.8649  -49.5354    0.0212 H   0  0  0  0  0  0  0  0  0  0  0  0
   30.6923  -51.7242   -0.0400 H   0  0  0  0  0  0  0  0  0  0  0  0
   34.2091  -49.4509    0.0561 H   0  0  0  0  0  0  0  0  0  0  0  0
   31.9323  -53.7187   -0.0588 H   0  0  0  0  0  0  0  0  0  0  0  0
   37.7955  -54.3381    0.0269 H   0  0  0  0  0  0  0  0  0  0  0  0
   42.0089  -52.7116   -0.0691 H   0  0  0  0  0  0  0  0  0  0  0  0
   41.1661  -51.5680    0.7357 H   0  0  0  0  0  0  0  0  0  0  0  0
   41.1303  -51.6117   -0.8961 H   0  0  0  0  0  0  0  0  0  0  0  0
  4  1  1  0  0  0  0
  1  2  1  0  0  0  0
  2  3  2  0  0  0  0
  5  3  1  0  0  0  0
  4  5  2  0  0  0  0
  6  7  1  0  0  0  0
  4  9  1  0  0  0  0
  5  8  1  0  0  0  0
  8  6  2  0  0  0  0
  7  9  2  0  0  0  0
  2 10  1  0  0  0  0
 10 11  1  0  0  0  0
 11 12  1  0  0  0  0
 12 13  1  0  0  0  0
 11 14  2  0  0  0  0
 12 15  1  0  0  0  0
 15 16  2  0  0  0  0
  6 17  1  0  0  0  0
  7 18  1  0  0  0  0
  8 19  1  0  0  0  0
  9 20  1  0  0  0  0
 10 21  1  0  0  0  0
 13 22  1  0  0  0  0
 13 23  1  0  0  0  0
 13 24  1  0  0  0  0
M  END
>  <Substance ID> (513)
513

>  <Mouse_Female_Canc> (513)
ND

>  <SAL> (513)
ND

>  <Rat_Male_Canc> (513)
3

>  <TD50_Rat> (513)
1.13

>  <TD50_Mouse> (513)
ND

>  <Rat_Female_Canc> (513)
3

>  <Canc> (513)
3

>  <MolWeight> (513)
236.25

>  <Mouse_Male_Canc> (513)
ND

>  <Mouse_Male_NTP> (513)
ND

>  <ChemName> (513)
N-nitrosobenzthiazuron

>  <Rat_Male_NTP> (513)
ND

>  <Reference> (513)
CPDB

>  <Formula> (513)
C9H8N4O2S

>  <SMILES> (513)
O=C(N(C)N=O)NC1=NC2=C(S1)C=CC=C2

>  <Rat_Female_NTP> (513)
ND

>  <CAS> (513)
51542-33-7

>  <Mouse_Female_NTP> (513)
ND

>  <Synonyms> (513)
1-(2'-Benzothiazolyl)-3-methyl-3-nitrosourea.

$$$$
514
 

 39 40  0  0  0  0  0  0  0  0999 V2000
   33.1802  -58.5814   -0.1209 C   0  0  0  0  0  0  0  0  0  0  0  0
   34.0839  -59.5370    0.0515 C   0  0  0  0  0  0  0  0  0  0  0  0
   35.8775  -57.9672    0.3273 C   0  0  0  0  0  0  0  0  0  0  0  0
   34.8713  -56.8769    0.2102 C   0  0  0  0  0  0  0  0  0  0  0  0
   35.4655  -59.2292    0.2895 C   0  0  0  0  0  0  0  0  0  0  0  0
   33.5787  -57.1678   -0.0033 C   0  0  0  0  0  0  0  0  0  0  0  0
   27.3363  -57.9617    0.3340 C   0  0  0  0  0  0  0  0  0  0  0  0
   27.7468  -59.2243    0.2962 C   0  0  0  0  0  0  0  0  0  0  0  0
   30.0322  -58.5794   -0.1199 C   0  0  0  0  0  0  0  0  0  0  0  0
   29.6353  -57.1653   -0.0036 C   0  0  0  0  0  0  0  0  0  0  0  0
   29.1277  -59.5339    0.0553 C   0  0  0  0  0  0  0  0  0  0  0  0
   28.3435  -56.8727    0.2124 C   0  0  0  0  0  0  0  0  0  0  0  0
   31.6056  -59.1428   -0.7076 S   0  0  0  0  0  0  0  0  0  0  0  0
   31.6057  -58.7242   -2.1612 O   0  0  0  0  0  0  0  0  0  0  0  0
   31.6048  -60.6582   -0.6470 O   0  0  0  0  0  0  0  0  0  0  0  0
   25.9437  -57.6603    0.4382 N   0  0  0  0  0  0  0  0  0  0  0  0
   24.9028  -58.6453    0.2685 C   0  0  0  0  0  0  0  0  0  0  0  0
   23.4682  -58.2058    0.2426 C   0  0  0  0  0  0  0  0  0  0  0  0
   25.1524  -59.8476    0.1042 O   0  0  0  0  0  0  0  0  0  0  0  0
   37.2707  -57.6679    0.4270 N   0  0  0  0  0  0  0  0  0  0  0  0
   38.3092  -58.6525    0.2392 C   0  0  0  0  0  0  0  0  0  0  0  0
   39.7447  -58.2161    0.2167 C   0  0  0  0  0  0  0  0  0  0  0  0
   38.0563  -59.8512    0.0550 O   0  0  0  0  0  0  0  0  0  0  0  0
   33.7959  -60.4940    0.0149 H   0  0  0  0  0  0  0  0  0  0  0  0
   35.1598  -55.9228    0.2910 H   0  0  0  0  0  0  0  0  0  0  0  0
   36.1225  -59.9703    0.4278 H   0  0  0  0  0  0  0  0  0  0  0  0
   32.8986  -56.4387   -0.0812 H   0  0  0  0  0  0  0  0  0  0  0  0
   27.0893  -59.9645    0.4367 H   0  0  0  0  0  0  0  0  0  0  0  0
   30.3159  -56.4371   -0.0842 H   0  0  0  0  0  0  0  0  0  0  0  0
   29.4145  -60.4912    0.0188 H   0  0  0  0  0  0  0  0  0  0  0  0
   28.0562  -55.9182    0.2921 H   0  0  0  0  0  0  0  0  0  0  0  0
   25.6764  -56.7178    0.6391 H   0  0  0  0  0  0  0  0  0  0  0  0
   22.8771  -59.0028    0.1187 H   0  0  0  0  0  0  0  0  0  0  0  0
   23.3284  -57.5670   -0.5140 H   0  0  0  0  0  0  0  0  0  0  0  0
   23.2417  -57.7543    1.1057 H   0  0  0  0  0  0  0  0  0  0  0  0
   37.5402  -56.7282    0.6376 H   0  0  0  0  0  0  0  0  0  0  0  0
   40.3336  -59.0124    0.0788 H   0  0  0  0  0  0  0  0  0  0  0  0
   39.9743  -57.7789    1.0863 H   0  0  0  0  0  0  0  0  0  0  0  0
   39.8842  -57.5657   -0.5300 H   0  0  0  0  0  0  0  0  0  0  0  0
  1  2  2  0  0  0  0
  3  4  1  0  0  0  0
  1  6  1  0  0  0  0
  2  5  1  0  0  0  0
  5  3  2  0  0  0  0
  4  6  2  0  0  0  0
  7  8  2  0  0  0  0
  9 10  1  0  0  0  0
  7 12  1  0  0  0  0
  8 11  1  0  0  0  0
 11  9  2  0  0  0  0
 10 12  2  0  0  0  0
  9 13  1  0  0  0  0
 13  1  1  0  0  0  0
 13 14  2  0  0  0  0
 13 15  2  0  0  0  0
  7 16  1  0  0  0  0
 16 17  1  0  0  0  0
 17 18  1  0  0  0  0
 17 19  2  0  0  0  0
  3 20  1  0  0  0  0
 20 21  1  0  0  0  0
 21 22  1  0  0  0  0
 21 23  2  0  0  0  0
  2 24  1  0  0  0  0
  4 25  1  0  0  0  0
  5 26  1  0  0  0  0
  6 27  1  0  0  0  0
  8 28  1  0  0  0  0
 10 29  1  0  0  0  0
 11 30  1  0  0  0  0
 12 31  1  0  0  0  0
 16 32  1  0  0  0  0
 18 33  1  0  0  0  0
 18 34  1  0  0  0  0
 18 35  1  0  0  0  0
 20 36  1  0  0  0  0
 22 37  1  0  0  0  0
 22 38  1  0  0  0  0
 22 39  1  0  0  0  0
M  END
>  <Substance ID> (514)
514

>  <Mouse_Female_Canc> (514)
ND

>  <SAL> (514)
1

>  <Rat_Male_Canc> (514)
ND

>  <TD50_Rat> (514)
55.6

>  <TD50_Mouse> (514)
ND

>  <Rat_Female_Canc> (514)
3

>  <Canc> (514)
3

>  <MolWeight> (514)
332.37

>  <Mouse_Male_Canc> (514)
ND

>  <Mouse_Male_NTP> (514)
ND

>  <ChemName> (514)
4,4'-Sulfonylbisacetanilide

>  <Rat_Male_NTP> (514)
ND

>  <Reference> (514)
CPDB

>  <Formula> (514)
C16H16N2O4S

>  <SMILES> (514)
CC(=O)NC1=CC=C(C=C1)S(=O)(=O)C2=CC=C(NC(C)=O)C=C2

>  <Rat_Female_NTP> (514)
ND

>  <CAS> (514)
77-46-3

>  <Mouse_Female_NTP> (514)
ND

>  <Synonyms> (514)
-

$$$$
515


 29 28  0  0  0  0  0  0  0  0999 V2000
   32.9830  -69.4928   -0.1912 N   0  0  0  0  0  0  0  0  0  0  0  0
   32.7461  -67.9722   -0.1712 C   0  0  0  0  0  0  0  0  0  0  0  0
   31.3842  -67.3832   -0.6857 C   0  0  0  0  0  0  0  0  0  0  0  0
   30.2838  -67.3835    0.4094 C   0  0  0  0  0  0  0  0  0  0  0  0
   28.9664  -66.8538   -0.1862 C   0  0  0  0  0  0  0  0  0  0  0  0
   32.0781  -70.5030    0.4687 C   0  0  0  0  0  0  0  0  0  0  0  0
   30.7220  -70.7077   -0.2497 C   0  0  0  0  0  0  0  0  0  0  0  0
   29.8409  -71.6697    0.5596 C   0  0  0  0  0  0  0  0  0  0  0  0
   28.4673  -71.7897   -0.1244 C   0  0  0  0  0  0  0  0  0  0  0  0
   34.2863  -69.7468    0.1362 N   0  0  0  0  0  0  0  0  0  0  0  0
   35.0953  -68.9067    0.0339 O   0  0  0  0  0  0  0  0  0  0  0  0
   32.8480  -67.6766    0.7786 H   0  0  0  0  0  0  0  0  0  0  0  0
   33.4674  -67.5603   -0.7281 H   0  0  0  0  0  0  0  0  0  0  0  0
   31.5358  -66.4419   -0.9873 H   0  0  0  0  0  0  0  0  0  0  0  0
   31.0680  -67.9343   -1.4578 H   0  0  0  0  0  0  0  0  0  0  0  0
   30.1470  -68.3159    0.7440 H   0  0  0  0  0  0  0  0  0  0  0  0
   30.5672  -66.7953    1.1667 H   0  0  0  0  0  0  0  0  0  0  0  0
   28.2574  -66.8540    0.5189 H   0  0  0  0  0  0  0  0  0  0  0  0
   28.6824  -67.4416   -0.9438 H   0  0  0  0  0  0  0  0  0  0  0  0
   29.1026  -65.9215   -0.5212 H   0  0  0  0  0  0  0  0  0  0  0  0
   32.5550  -71.3816    0.4937 H   0  0  0  0  0  0  0  0  0  0  0  0
   31.8945  -70.1961    1.4026 H   0  0  0  0  0  0  0  0  0  0  0  0
   30.2571  -69.8266   -0.3371 H   0  0  0  0  0  0  0  0  0  0  0  0
   30.8834  -71.0916   -1.1589 H   0  0  0  0  0  0  0  0  0  0  0  0
   30.2755  -72.5695    0.5982 H   0  0  0  0  0  0  0  0  0  0  0  0
   29.7232  -71.3157    1.4874 H   0  0  0  0  0  0  0  0  0  0  0  0
   27.8878  -72.4153    0.3979 H   0  0  0  0  0  0  0  0  0  0  0  0
   28.5862  -72.1426   -1.0525 H   0  0  0  0  0  0  0  0  0  0  0  0
   28.0341  -70.8892   -0.1635 H   0  0  0  0  0  0  0  0  0  0  0  0
  1  2  1  0  0  0  0
  2  3  1  0  0  0  0
  3  4  1  0  0  0  0
  4  5  1  0  0  0  0
  1  6  1  0  0  0  0
  6  7  1  0  0  0  0
  7  8  1  0  0  0  0
  8  9  1  0  0  0  0
  1 10  1  0  0  0  0
 10 11  2  0  0  0  0
  2 12  1  0  0  0  0
  2 13  1  0  0  0  0
  3 14  1  0  0  0  0
  3 15  1  0  0  0  0
  4 16  1  0  0  0  0
  4 17  1  0  0  0  0
  5 18  1  0  0  0  0
  5 19  1  0  0  0  0
  5 20  1  0  0  0  0
  6 21  1  0  0  0  0
  6 22  1  0  0  0  0
  7 23  1  0  0  0  0
  7 24  1  0  0  0  0
  8 25  1  0  0  0  0
  8 26  1  0  0  0  0
  9 27  1  0  0  0  0
  9 28  1  0  0  0  0
  9 29  1  0  0  0  0
M  END
>  <Substance ID> (515)
515

>  <Mouse_Female_Canc> (515)
ND

>  <SAL> (515)
3

>  <Rat_Male_Canc> (515)
3

>  <TD50_Rat> (515)
0.691

>  <TD50_Mouse> (515)
1.09

>  <Rat_Female_Canc> (515)
ND

>  <Canc> (515)
3

>  <MolWeight> (515)
158.24

>  <Mouse_Male_Canc> (515)
3

>  <Mouse_Male_NTP> (515)
ND

>  <ChemName> (515)
Nitrosodibutylamine

>  <Rat_Male_NTP> (515)
ND

>  <Reference> (515)
CPDB

>  <Formula> (515)
C8H18N2O

>  <SMILES> (515)
O=NN(CCCC)CCCC

>  <Rat_Female_NTP> (515)
ND

>  <CAS> (515)
924-16-3

>  <Mouse_Female_NTP> (515)
ND

>  <Synonyms> (515)
Dibutylnitrosamine; Di-n-butylnitrosamine; DBN; N-Butyl-N-nitroso-1-butamine; N-butyl-N-nitroso-1-Butanamine; NDBA; N,N-Di-n-butylnitrosamine; N-Nitrosodibutylamine; N-Nitroso-di-n-butylamine; N-Nitroso-di-n-butylamine.

$$$$
516


 17 16  0  0  0  0  0  0  0  0999 V2000
   34.9188  -90.7613    0.0647 N   0  0  0  0  0  0  0  0  0  0  0  0
   36.2323  -90.9223    0.2049 N   0  0  0  0  0  0  0  0  0  0  0  0
   36.9718  -90.0615   -0.1720 O   0  0  0  0  0  0  0  0  0  0  0  0
   34.4056  -89.5581   -0.5901 C   0  0  0  0  0  0  0  0  0  0  0  0
   33.2766  -88.8458    0.2134 C   0  0  0  0  0  0  0  0  0  0  0  0
   34.0461  -91.8288    0.5937 C   0  0  0  0  0  0  0  0  0  0  0  0
   32.8180  -92.1423   -0.3122 C   0  0  0  0  0  0  0  0  0  0  0  0
   35.1625  -88.9156   -0.7094 H   0  0  0  0  0  0  0  0  0  0  0  0
   34.0423  -89.8158   -1.4854 H   0  0  0  0  0  0  0  0  0  0  0  0
   32.9715  -88.0353   -0.2864 H   0  0  0  0  0  0  0  0  0  0  0  0
   33.6263  -88.5722    1.1095 H   0  0  0  0  0  0  0  0  0  0  0  0
   32.5063  -89.4722    0.3337 H   0  0  0  0  0  0  0  0  0  0  0  0
   34.5898  -92.6628    0.6877 H   0  0  0  0  0  0  0  0  0  0  0  0
   33.7110  -91.5457    1.4923 H   0  0  0  0  0  0  0  0  0  0  0  0
   32.2735  -92.8705    0.1039 H   0  0  0  0  0  0  0  0  0  0  0  0
   33.1348  -92.4374   -1.2137 H   0  0  0  0  0  0  0  0  0  0  0  0
   32.2563  -91.3207   -0.4093 H   0  0  0  0  0  0  0  0  0  0  0  0
  1  2  1  0  0  0  0
  2  3  2  0  0  0  0
  1  4  1  0  0  0  0
  4  5  1  0  0  0  0
  1  6  1  0  0  0  0
  6  7  1  0  0  0  0
  4  8  1  0  0  0  0
  4  9  1  0  0  0  0
  5 10  1  0  0  0  0
  5 11  1  0  0  0  0
  5 12  1  0  0  0  0
  6 13  1  0  0  0  0
  6 14  1  0  0  0  0
  7 15  1  0  0  0  0
  7 16  1  0  0  0  0
  7 17  1  0  0  0  0
M  END
>  <Substance ID> (516)
516

>  <Mouse_Female_Canc> (516)
ND

>  <SAL> (516)
3

>  <Rat_Male_Canc> (516)
3

>  <TD50_Rat> (516)
0.0265

>  <TD50_Mouse> (516)
ND

>  <Rat_Female_Canc> (516)
3

>  <Canc> (516)
3

>  <MolWeight> (516)
102.14

>  <Mouse_Male_Canc> (516)
ND

>  <Mouse_Male_NTP> (516)
ND

>  <ChemName> (516)
N-Nitrosodiethylamine

>  <Rat_Male_NTP> (516)
ND

>  <Reference> (516)
CPDB

>  <Formula> (516)
C4H10N2O

>  <SMILES> (516)
CCN(CC)N=O

>  <Rat_Female_NTP> (516)
ND

>  <CAS> (516)
55-18-5

>  <Mouse_Female_NTP> (516)
ND

>  <Synonyms> (516)
Diethylnitrosamide; Diethylnitrosamine; Diethylnitrosoamine; dana; DEN; DENA; ethylamine, N-Nitrosdi; NDEA; N-Ethyl-N-nitroso-ethanamine; Nitrosodiethylamine; nitrous diethylamide; N,N-Diethylnitrosamine; N-nitroso-N,N-diethylamine.

$$$$
517


 19 18  0  0  0  0  0  0  0  0999 V2000
    5.4329   -3.4228   -0.0760 N   0  0  0  0  0  0  0  0  0  0  0  0
    6.7576   -3.4217   -0.1686 N   0  0  0  0  0  0  0  0  0  0  0  0
    7.3717   -2.4903    0.2014 O   0  0  0  0  0  0  0  0  0  0  0  0
    4.7595   -2.2662    0.4881 C   0  0  0  0  0  0  0  0  0  0  0  0
    3.6712   -1.7213   -0.4778 C   0  0  0  0  0  0  0  0  0  0  0  0
    3.0026   -0.6182    0.1313 O   0  0  0  0  0  0  0  0  0  0  0  0
    4.6959   -4.5820   -0.5430 C   0  0  0  0  0  0  0  0  0  0  0  0
    3.6194   -5.0273    0.4828 C   0  0  0  0  0  0  0  0  0  0  0  0
    2.8997   -6.1403   -0.0412 O   0  0  0  0  0  0  0  0  0  0  0  0
    4.3274   -2.5294    1.3506 H   0  0  0  0  0  0  0  0  0  0  0  0
    5.4337   -1.5475    0.6582 H   0  0  0  0  0  0  0  0  0  0  0  0
    4.1016   -1.4210   -1.3291 H   0  0  0  0  0  0  0  0  0  0  0  0
    3.0092   -2.4442   -0.6755 H   0  0  0  0  0  0  0  0  0  0  0  0
    2.3023   -0.2677   -0.4905 H   0  0  0  0  0  0  0  0  0  0  0  0
    4.2461   -4.3540   -1.4066 H   0  0  0  0  0  0  0  0  0  0  0  0
    5.3362   -5.3361   -0.6890 H   0  0  0  0  0  0  0  0  0  0  0  0
    4.0633   -5.2902    1.3395 H   0  0  0  0  0  0  0  0  0  0  0  0
    2.9873   -4.2712    0.6527 H   0  0  0  0  0  0  0  0  0  0  0  0
    2.2054   -6.4291    0.6179 H   0  0  0  0  0  0  0  0  0  0  0  0
  1  2  1  0  0  0  0
  2  3  2  0  0  0  0
  1  4  1  0  0  0  0
  4  5  1  0  0  0  0
  5  6  1  0  0  0  0
  1  7  1  0  0  0  0
  7  8  1  0  0  0  0
  8  9  1  0  0  0  0
  4 10  1  0  0  0  0
  4 11  1  0  0  0  0
  5 12  1  0  0  0  0
  5 13  1  0  0  0  0
  6 14  1  0  0  0  0
  7 15  1  0  0  0  0
  7 16  1  0  0  0  0
  8 17  1  0  0  0  0
  8 18  1  0  0  0  0
  9 19  1  0  0  0  0
M  END
>  <Substance ID> (517)
517

>  <Mouse_Female_Canc> (517)
ND

>  <SAL> (517)
3

>  <Rat_Male_Canc> (517)
3

>  <TD50_Rat> (517)
3.17

>  <TD50_Mouse> (517)
ND

>  <Rat_Female_Canc> (517)
3

>  <Canc> (517)
3

>  <MolWeight> (517)
134.13

>  <Mouse_Male_Canc> (517)
ND

>  <Mouse_Male_NTP> (517)
ND

>  <ChemName> (517)
N-Nitrosodiethanolamine 

>  <Rat_Male_NTP> (517)
ND

>  <Reference> (517)
CPDB

>  <Formula> (517)
C4H10N2O3

>  <SMILES> (517)
O=NN(CCO)CCO

>  <Rat_Female_NTP> (517)
ND

>  <CAS> (517)
1116-54-7

>  <Mouse_Female_NTP> (517)
ND

>  <Synonyms> (517)
2,2'-dihydroxy-N-nitrosodiethylamine; 2,2'-iminodi(N-nitrosoethanol); 2,2'-nitrosiminodiethanol; 2,2-(Nitrosoimino) bisethanol; 2,2'-(nitrosoimino)bisethanol; bis(beta-Hydroxyethyl)nitrosamine; Diethanolnitrosamine; diethanolnitrosoamine; Ndela; Nitrosoiminodiethanol; N-nitrosoaminodiethanol; N-Nitrosobis(2-hydroxyethyl)amine; N-nitrosoiminodiethanol.

$$$$
518


 21 22  0  0  0  0  0  0  0  0999 V2000
    9.0950  -11.7078    0.6554 O   0  0  0  0  0  0  0  0  0  0  0  0
    8.6309  -12.2745   -0.5833 C   0  0  1  0  0  0  0  0  0  0  0  0
    9.6031  -13.0237    0.2783 C   0  0  0  0  0  0  0  0  0  0  0  0
    7.2029  -12.7805   -0.3202 C   0  0  0  0  0  0  0  0  0  0  0  0
    2.3029  -12.8375    0.2445 C   0  0  0  0  0  0  0  0  0  0  0  0
    3.2650  -13.7585    0.2333 C   0  0  0  0  0  0  0  0  0  0  0  0
    4.9705  -12.0713   -0.1382 C   0  0  0  0  0  0  0  0  0  0  0  0
    3.9087  -11.0601   -0.1235 C   0  0  0  0  0  0  0  0  0  0  0  0
    4.6609  -13.3570    0.0329 C   0  0  0  0  0  0  0  0  0  0  0  0
    2.6400  -11.4250    0.0583 C   0  0  0  0  0  0  0  0  0  0  0  0
    6.3007  -11.6647   -0.3372 O   0  0  0  0  0  0  0  0  0  0  0  0
    8.6057  -12.0133   -1.5482 H   0  0  0  0  0  0  0  0  0  0  0  0
    9.3102  -13.8394    0.7772 H   0  0  0  0  0  0  0  0  0  0  0  0
   10.5538  -13.1332   -0.0117 H   0  0  0  0  0  0  0  0  0  0  0  0
    7.1654  -13.2282    0.5732 H   0  0  0  0  0  0  0  0  0  0  0  0
    6.9423  -13.4330   -1.0317 H   0  0  0  0  0  0  0  0  0  0  0  0
    1.3505  -13.1107    0.3800 H   0  0  0  0  0  0  0  0  0  0  0  0
    3.0354  -14.7233    0.3615 H   0  0  0  0  0  0  0  0  0  0  0  0
    4.1371  -10.0948   -0.2502 H   0  0  0  0  0  0  0  0  0  0  0  0
    5.3826  -14.0491    0.0246 H   0  0  0  0  0  0  0  0  0  0  0  0
    1.9177  -10.7334    0.0676 H   0  0  0  0  0  0  0  0  0  0  0  0
  2  1  1  0  0  0  0
  3  2  1  0  0  0  0
  1  3  1  0  0  0  0
  5  6  2  0  0  0  0
  7  8  1  0  0  0  0
  5 10  1  0  0  0  0
  6  9  1  0  0  0  0
  9  7  2  0  0  0  0
  8 10  2  0  0  0  0
  7 11  1  0  0  0  0
 11  4  1  0  0  0  0
  4  2  1  0  0  0  0
  2 12  1  0  0  0  0
  3 13  1  0  0  0  0
  3 14  1  0  0  0  0
  4 15  1  0  0  0  0
  4 16  1  0  0  0  0
  5 17  1  0  0  0  0
  6 18  1  0  0  0  0
  8 19  1  0  0  0  0
  9 20  1  0  0  0  0
 10 21  1  0  0  0  0
M  END
>  <Substance ID> (518)
518

>  <Mouse_Female_Canc> (518)
ND

>  <SAL> (518)
3

>  <Rat_Male_Canc> (518)
3

>  <TD50_Rat> (518)
44

>  <TD50_Mouse> (518)
ND

>  <Rat_Female_Canc> (518)
3

>  <Canc> (518)
3

>  <MolWeight> (518)
150.18

>  <Mouse_Male_Canc> (518)
ND

>  <Mouse_Male_NTP> (518)
ND

>  <ChemName> (518)
Phenyl Glycidyl Ether

>  <Rat_Male_NTP> (518)
ND

>  <Reference> (518)
CPDB

>  <Formula> (518)
C9H10O2

>  <SMILES> (518)
O(C1=CC=CC=C1)CC2CO2

>  <Rat_Female_NTP> (518)
ND

>  <CAS> (518)
122-60-1

>  <Mouse_Female_NTP> (518)
ND

>  <Synonyms> (518)
(+/-)-1,2-Epoxy-3-phenoxypropane; 1,2-Epoxy-3-phenoxypropane; 2,3-epoxypropyl phenyl ether; 3-phenoxy-1,2-epoxypropane; benzene, (2,3-epoxypropoxy)-; Glycidyl Phenyl Ether; PGE; (phenoxymethyl)oxirane; phenoxypropene oxide; Phenyl 2,3-epoxypropyl ether; PHENYL GLYCIDYL ETHER (1,2-EPOXY-3-PHENOXYPROPANE).

$$$$
519


 11 10  0  0  0  0  0  0  0  0999 V2000
    3.0243  -20.0859   -0.0069 N   0  0  0  0  0  0  0  0  0  0  0  0
    4.3597  -19.8038    0.0100 N   0  0  0  0  0  0  0  0  0  0  0  0
    2.0424  -18.9925    0.0156 C   0  0  0  0  0  0  0  0  0  0  0  0
    2.5681  -21.4833   -0.0200 C   0  0  0  0  0  0  0  0  0  0  0  0
    5.1455  -20.6782    0.0032 O   0  0  0  0  0  0  0  0  0  0  0  0
    1.1181  -19.3736   -0.0011 H   0  0  0  0  0  0  0  0  0  0  0  0
    2.1757  -18.4077   -0.7846 H   0  0  0  0  0  0  0  0  0  0  0  0
    2.1644  -18.4514    0.8476 H   0  0  0  0  0  0  0  0  0  0  0  0
    1.5685  -21.5080   -0.0316 H   0  0  0  0  0  0  0  0  0  0  0  0
    2.9032  -21.9516    0.7976 H   0  0  0  0  0  0  0  0  0  0  0  0
    2.9218  -21.9423   -0.8351 H   0  0  0  0  0  0  0  0  0  0  0  0
  1  2  1  0  0  0  0
  1  3  1  0  0  0  0
  1  4  1  0  0  0  0
  2  5  2  0  0  0  0
  3  6  1  0  0  0  0
  3  7  1  0  0  0  0
  3  8  1  0  0  0  0
  4  9  1  0  0  0  0
  4 10  1  0  0  0  0
  4 11  1  0  0  0  0
M  END
>  <Substance ID> (519)
519

>  <Mouse_Female_Canc> (519)
3

>  <SAL> (519)
3

>  <Rat_Male_Canc> (519)
3

>  <TD50_Rat> (519)
0.0959

>  <TD50_Mouse> (519)
0.189

>  <Rat_Female_Canc> (519)
3

>  <Canc> (519)
3

>  <MolWeight> (519)
74.08

>  <Mouse_Male_Canc> (519)
3

>  <Mouse_Male_NTP> (519)
ND

>  <ChemName> (519)
N-nitrosodimethylamine

>  <Rat_Male_NTP> (519)
ND

>  <Reference> (519)
CPDB

>  <Formula> (519)
C2H6N2O

>  <SMILES> (519)
CN(N=O)C

>  <Rat_Female_NTP> (519)
ND

>  <CAS> (519)
62-75-9

>  <Mouse_Female_NTP> (519)
ND

>  <Synonyms> (519)
Dimethylnitrosamine; Dimethylnitrosoamine; DMN; DMNA; Methamine, N-methyl-N-nitroso-; NDMA; Nitrosodimethylamine; nitrous dimethylamide; N-methyl-N-nitroso-methanamine; N,N-dimethylnitrosamine.

$$$$
520


 23 22  0  0  0  0  0  0  0  0999 V2000
    6.7131  -26.4800    0.1701 N   0  0  0  0  0  0  0  0  0  0  0  0
    7.4296  -27.3354   -0.1977 O   0  0  0  0  0  0  0  0  0  0  0  0
    5.3943  -26.6188    0.0587 N   0  0  0  0  0  0  0  0  0  0  0  0
    4.5325  -25.5376    0.5169 C   0  0  0  0  0  0  0  0  0  0  0  0
    3.3319  -25.2988   -0.4390 C   0  0  0  0  0  0  0  0  0  0  0  0
    2.4528  -24.1637    0.1149 C   0  0  0  0  0  0  0  0  0  0  0  0
    4.8577  -27.8422   -0.5190 C   0  0  0  0  0  0  0  0  0  0  0  0
    3.9156  -28.5742    0.4784 C   0  0  0  0  0  0  0  0  0  0  0  0
    3.3550  -29.8464   -0.1822 C   0  0  0  0  0  0  0  0  0  0  0  0
    4.1807  -25.7687    1.4240 H   0  0  0  0  0  0  0  0  0  0  0  0
    5.0719  -24.6974    0.5722 H   0  0  0  0  0  0  0  0  0  0  0  0
    3.6722  -25.0451   -1.3445 H   0  0  0  0  0  0  0  0  0  0  0  0
    2.7898  -26.1363   -0.5087 H   0  0  0  0  0  0  0  0  0  0  0  0
    1.6797  -24.0097   -0.5003 H   0  0  0  0  0  0  0  0  0  0  0  0
    2.9944  -23.3260    0.1850 H   0  0  0  0  0  0  0  0  0  0  0  0
    2.1123  -24.4168    1.0205 H   0  0  0  0  0  0  0  0  0  0  0  0
    4.3426  -27.6133   -1.3449 H   0  0  0  0  0  0  0  0  0  0  0  0
    5.6158  -28.4498   -0.7560 H   0  0  0  0  0  0  0  0  0  0  0  0
    4.4291  -28.8239    1.2993 H   0  0  0  0  0  0  0  0  0  0  0  0
    3.1603  -27.9685    0.7286 H   0  0  0  0  0  0  0  0  0  0  0  0
    2.7493  -30.3166    0.4596 H   0  0  0  0  0  0  0  0  0  0  0  0
    4.1098  -30.4527   -0.4327 H   0  0  0  0  0  0  0  0  0  0  0  0
    2.8413  -29.5975   -1.0033 H   0  0  0  0  0  0  0  0  0  0  0  0
  1  2  2  0  0  0  0
  1  3  1  0  0  0  0
  3  4  1  0  0  0  0
  4  5  1  0  0  0  0
  5  6  1  0  0  0  0
  3  7  1  0  0  0  0
  7  8  1  0  0  0  0
  8  9  1  0  0  0  0
  4 10  1  0  0  0  0
  4 11  1  0  0  0  0
  5 12  1  0  0  0  0
  5 13  1  0  0  0  0
  6 14  1  0  0  0  0
  6 15  1  0  0  0  0
  6 16  1  0  0  0  0
  7 17  1  0  0  0  0
  7 18  1  0  0  0  0
  8 19  1  0  0  0  0
  8 20  1  0  0  0  0
  9 21  1  0  0  0  0
  9 22  1  0  0  0  0
  9 23  1  0  0  0  0
M  END
>  <Substance ID> (520)
520

>  <Mouse_Female_Canc> (520)
ND

>  <SAL> (520)
3

>  <Rat_Male_Canc> (520)
ND

>  <TD50_Rat> (520)
0.186

>  <TD50_Mouse> (520)
ND

>  <Rat_Female_Canc> (520)
3

>  <Canc> (520)
3

>  <MolWeight> (520)
130.19

>  <Mouse_Male_Canc> (520)
ND

>  <Mouse_Male_NTP> (520)
ND

>  <ChemName> (520)
N-nitrosodipropylamine

>  <Rat_Male_NTP> (520)
ND

>  <Reference> (520)
CPDB

>  <Formula> (520)
C6H14N2O

>  <SMILES> (520)
O=NN(CCC)CCC

>  <Rat_Female_NTP> (520)
ND

>  <CAS> (520)
621-64-7

>  <Mouse_Female_NTP> (520)
ND

>  <Synonyms> (520)
Di-n-propylnitrosamine; Dipropylnitrosamine; DPN; DPNA; NDPA; Nitrosodipropylamine; nitrous dipropylamide; N-Nitroso di-n-propylamine; N-Nitrosodi-N-propylamine; N-nitroso-N-dipropylamine; N-Nitroso-N-propyl-1-propanamine.

$$$$
521


 28 28  0  0  0  0  0  0  0  0999 V2000
    4.1271  -46.1572    0.1988 C   0  0  0  0  0  0  0  0  0  0  0  0
    5.5512  -45.6301    0.4557 C   0  0  1  0  0  0  0  0  0  0  0  0
    6.7633  -46.4257   -0.2117 C   0  0  1  0  0  0  0  0  0  0  0  0
    8.0295  -45.7715    0.1412 N   0  0  0  0  0  0  0  0  0  0  0  0
    1.5018  -47.0257   -0.2758 C   0  0  0  0  0  0  0  0  0  0  0  0
    2.4911  -47.9090   -0.1955 C   0  0  0  0  0  0  0  0  0  0  0  0
    3.0314  -45.1858    0.1150 C   0  0  0  0  0  0  0  0  0  0  0  0
    3.8478  -47.4525    0.0495 C   0  0  0  0  0  0  0  0  0  0  0  0
    1.7852  -45.5992   -0.1128 C   0  0  0  0  0  0  0  0  0  0  0  0
    5.5606  -44.2441    0.0915 O   0  0  0  0  0  0  0  0  0  0  0  0
    6.9089  -47.9020    0.2718 C   0  0  0  0  0  0  0  0  0  0  0  0
    9.2611  -46.4499   -0.2880 C   0  0  0  0  0  0  0  0  0  0  0  0
    8.0687  -44.4313   -0.0674 N   0  0  0  0  0  0  0  0  0  0  0  0
    9.1054  -43.8889   -0.1715 O   0  0  0  0  0  0  0  0  0  0  0  0
    5.7349  -45.7766    1.4277 H   0  0  0  0  0  0  0  0  0  0  0  0
    6.5646  -46.4234   -1.1917 H   0  0  0  0  0  0  0  0  0  0  0  0
    0.5663  -47.3348   -0.4470 H   0  0  0  0  0  0  0  0  0  0  0  0
    2.3021  -48.8850   -0.3035 H   0  0  0  0  0  0  0  0  0  0  0  0
    3.2201  -44.2104    0.2290 H   0  0  0  0  0  0  0  0  0  0  0  0
    4.5874  -48.1230    0.1074 H   0  0  0  0  0  0  0  0  0  0  0  0
    1.0418  -44.9331   -0.1724 H   0  0  0  0  0  0  0  0  0  0  0  0
    6.4731  -43.8649    0.2451 H   0  0  0  0  0  0  0  0  0  0  0  0
    7.6861  -48.3294   -0.1899 H   0  0  0  0  0  0  0  0  0  0  0  0
    6.0739  -48.4080    0.0554 H   0  0  0  0  0  0  0  0  0  0  0  0
    7.0600  -47.9162    1.2602 H   0  0  0  0  0  0  0  0  0  0  0  0
   10.0550  -45.9174    0.0051 H   0  0  0  0  0  0  0  0  0  0  0  0
    9.2661  -46.5338   -1.2845 H   0  0  0  0  0  0  0  0  0  0  0  0
    9.3011  -47.3608    0.1229 H   0  0  0  0  0  0  0  0  0  0  0  0
  1  2  1  0  0  0  0
  2  3  1  0  0  0  0
  3  4  1  0  0  0  0
  5  6  2  0  0  0  0
  1  7  1  0  0  0  0
  5  9  1  0  0  0  0
  6  8  1  0  0  0  0
  8  1  2  0  0  0  0
  7  9  2  0  0  0  0
  2 10  1  0  0  0  0
  3 11  1  0  0  0  0
  4 12  1  0  0  0  0
  4 13  1  0  0  0  0
 13 14  2  0  0  0  0
  2 15  1  0  0  0  0
  3 16  1  0  0  0  0
  5 17  1  0  0  0  0
  6 18  1  0  0  0  0
  7 19  1  0  0  0  0
  8 20  1  0  0  0  0
  9 21  1  0  0  0  0
 10 22  1  0  0  0  0
 11 23  1  0  0  0  0
 11 24  1  0  0  0  0
 11 25  1  0  0  0  0
 12 26  1  0  0  0  0
 12 27  1  0  0  0  0
 12 28  1  0  0  0  0
M  END
>  <Substance ID> (521)
521

>  <Mouse_Female_Canc> (521)
ND

>  <SAL> (521)
ND

>  <Rat_Male_Canc> (521)
3

>  <TD50_Rat> (521)
95.2

>  <TD50_Mouse> (521)
ND

>  <Rat_Female_Canc> (521)
ND

>  <Canc> (521)
3

>  <MolWeight> (521)
194.23

>  <Mouse_Male_Canc> (521)
ND

>  <Mouse_Male_NTP> (521)
ND

>  <ChemName> (521)
N-nitrosoephedrine

>  <Rat_Male_NTP> (521)
ND

>  <Reference> (521)
CPDB

>  <Formula> (521)
C10H14N2O2

>  <SMILES> (521)
C1=CC=CC=C1C(O)C(N(C)N=O)C

>  <Rat_Female_NTP> (521)
ND

>  <CAS> (521)
17608-59-2

>  <Mouse_Female_NTP> (521)
ND

>  <Synonyms> (521)
-

$$$$
522


 22 21  0  0  0  0  0  0  0  0999 V2000
    8.5710  -58.4568    0.0049 C   0  0  0  0  0  0  0  0  0  0  0  0
    7.3129  -57.6666   -0.3986 C   0  0  1  0  0  0  0  0  0  0  0  0
    6.0807  -58.2766    0.3063 C   0  0  0  0  0  0  0  0  0  0  0  0
    4.8462  -57.5678   -0.0818 N   0  0  0  0  0  0  0  0  0  0  0  0
    3.5761  -58.2052    0.3560 C   0  0  0  0  0  0  0  0  0  0  0  0
    2.3805  -57.6589   -0.3828 C   0  0  0  0  0  0  0  0  0  0  0  0
    1.1586  -58.0952   -0.0858 C   0  0  0  0  0  0  0  0  0  0  0  0
    4.9321  -56.1951    0.0898 N   0  0  0  0  0  0  0  0  0  0  0  0
    7.4787  -56.3002   -0.0142 O   0  0  0  0  0  0  0  0  0  0  0  0
    3.9825  -55.5119    0.2069 O   0  0  0  0  0  0  0  0  0  0  0  0
    9.3711  -58.0651   -0.4492 H   0  0  0  0  0  0  0  0  0  0  0  0
    8.4671  -59.4127   -0.2697 H   0  0  0  0  0  0  0  0  0  0  0  0
    8.6931  -58.4065    0.9962 H   0  0  0  0  0  0  0  0  0  0  0  0
    7.1769  -57.7148   -1.3881 H   0  0  0  0  0  0  0  0  0  0  0  0
    5.9998  -59.2395    0.0486 H   0  0  0  0  0  0  0  0  0  0  0  0
    6.2014  -58.2051    1.2964 H   0  0  0  0  0  0  0  0  0  0  0  0
    3.6356  -59.1894    0.1891 H   0  0  0  0  0  0  0  0  0  0  0  0
    3.4533  -58.0393    1.3345 H   0  0  0  0  0  0  0  0  0  0  0  0
    2.5055  -56.9689   -1.0958 H   0  0  0  0  0  0  0  0  0  0  0  0
    0.3656  -57.7331   -0.5756 H   0  0  0  0  0  0  0  0  0  0  0  0
    1.0337  -58.7851    0.6272 H   0  0  0  0  0  0  0  0  0  0  0  0
    6.6652  -55.7796   -0.2730 H   0  0  0  0  0  0  0  0  0  0  0  0
  1  2  1  0  0  0  0
  2  3  1  0  0  0  0
  3  4  1  0  0  0  0
  4  5  1  0  0  0  0
  6  5  1  0  0  0  0
  6  7  2  0  0  0  0
  4  8  1  0  0  0  0
  2  9  1  0  0  0  0
  8 10  2  0  0  0  0
  1 11  1  0  0  0  0
  1 12  1  0  0  0  0
  1 13  1  0  0  0  0
  2 14  1  0  0  0  0
  3 15  1  0  0  0  0
  3 16  1  0  0  0  0
  5 17  1  0  0  0  0
  5 18  1  0  0  0  0
  6 19  1  0  0  0  0
  7 20  1  0  0  0  0
  7 21  1  0  0  0  0
  9 22  1  0  0  0  0
M  END
>  <Substance ID> (522)
522

>  <Mouse_Female_Canc> (522)
ND

>  <SAL> (522)
ND

>  <Rat_Male_Canc> (522)
ND

>  <TD50_Rat> (522)
0.877

>  <TD50_Mouse> (522)
ND

>  <Rat_Female_Canc> (522)
3

>  <Canc> (522)
3

>  <MolWeight> (522)
144.17

>  <Mouse_Male_Canc> (522)
ND

>  <Mouse_Male_NTP> (522)
ND

>  <ChemName> (522)
N-nitrosoallyl-2-hydroxypropylamine

>  <Rat_Male_NTP> (522)
ND

>  <Reference> (522)
CPDB

>  <Formula> (522)
C6H12N2O2

>  <SMILES> (522)
N(CC(C)O)(CC=C)N=O

>  <Rat_Female_NTP> (522)
ND

>  <CAS> (522)
91308-70-2

>  <Mouse_Female_NTP> (522)
ND

>  <Synonyms> (522)
-

$$$$
523
 

 24 24  0  0  0  0  0  0  0  0999 V2000
    2.9470  -49.7267    0.5877 C   0  0  0  0  0  0  0  0  0  0  0  0
    1.5304  -49.8116   -0.0706 C   0  0  0  0  0  0  0  0  0  0  0  0
    0.7513  -51.1757    0.0006 C   0  0  0  0  0  0  0  0  0  0  0  0
    4.0713  -50.2613   -0.3600 C   0  0  0  0  0  0  0  0  0  0  0  0
    1.4782  -52.4251   -0.5522 C   0  0  0  0  0  0  0  0  0  0  0  0
    5.9790  -51.6617   -0.1430 N   0  0  0  0  0  0  0  0  0  0  0  0
    6.5282  -52.6896    0.0568 O   0  0  0  0  0  0  0  0  0  0  0  0
    2.4555  -52.9639    0.5114 C   0  0  0  0  0  0  0  0  0  0  0  0
    3.9465  -52.9057    0.0858 C   0  0  0  0  0  0  0  0  0  0  0  0
    4.6532  -51.6076   -0.1166 N   0  0  0  0  0  0  0  0  0  0  0  0
    3.1415  -48.7716    0.8113 H   0  0  0  0  0  0  0  0  0  0  0  0
    2.9459  -50.2721    1.4258 H   0  0  0  0  0  0  0  0  0  0  0  0
    0.9577  -49.1211    0.3712 H   0  0  0  0  0  0  0  0  0  0  0  0
    1.6405  -49.5846   -1.0382 H   0  0  0  0  0  0  0  0  0  0  0  0
    0.5364  -51.3514    0.9613 H   0  0  0  0  0  0  0  0  0  0  0  0
   -0.0975  -51.0664   -0.5167 H   0  0  0  0  0  0  0  0  0  0  0  0
    3.6918  -50.2712   -1.2851 H   0  0  0  0  0  0  0  0  0  0  0  0
    4.8254  -49.6060   -0.3155 H   0  0  0  0  0  0  0  0  0  0  0  0
    0.8055  -53.1309   -0.7745 H   0  0  0  0  0  0  0  0  0  0  0  0
    1.9867  -52.1771   -1.3768 H   0  0  0  0  0  0  0  0  0  0  0  0
    2.3448  -52.4208    1.3438 H   0  0  0  0  0  0  0  0  0  0  0  0
    2.2197  -53.9170    0.7009 H   0  0  0  0  0  0  0  0  0  0  0  0
    4.4592  -53.3983    0.7890 H   0  0  0  0  0  0  0  0  0  0  0  0
    4.0109  -53.3992   -0.7816 H   0  0  0  0  0  0  0  0  0  0  0  0
  1  2  1  0  0  0  0
  2  3  1  0  0  0  0
  1  4  1  0  0  0  0
  5  3  1  0  0  0  0
  4 10  1  0  0  0  0
 10  6  1  0  0  0  0
  6  7  2  0  0  0  0
  5  8  1  0  0  0  0
  8  9  1  0  0  0  0
  9 10  1  0  0  0  0
  1 11  1  0  0  0  0
  1 12  1  0  0  0  0
  2 13  1  0  0  0  0
  2 14  1  0  0  0  0
  3 15  1  0  0  0  0
  3 16  1  0  0  0  0
  4 17  1  0  0  0  0
  4 18  1  0  0  0  0
  5 19  1  0  0  0  0
  5 20  1  0  0  0  0
  8 21  1  0  0  0  0
  8 22  1  0  0  0  0
  9 23  1  0  0  0  0
  9 24  1  0  0  0  0
M  END
>  <Substance ID> (523)
523

>  <Mouse_Female_Canc> (523)
ND

>  <SAL> (523)
3

>  <Rat_Male_Canc> (523)
3

>  <TD50_Rat> (523)
0.0378

>  <TD50_Mouse> (523)
ND

>  <Rat_Female_Canc> (523)
ND

>  <Canc> (523)
3

>  <MolWeight> (523)
142.20

>  <Mouse_Male_Canc> (523)
ND

>  <Mouse_Male_NTP> (523)
ND

>  <ChemName> (523)
Nitrosoheptamethyleneimine

>  <Rat_Male_NTP> (523)
ND

>  <Reference> (523)
CPDB

>  <Formula> (523)
C7H14N2O

>  <SMILES> (523)
O=NN1CCCCCCC1

>  <Rat_Female_NTP> (523)
ND

>  <CAS> (523)
20917-49-1

>  <Mouse_Female_NTP> (523)
ND

>  <Synonyms> (523)
N-Nitroso-heptamethyleneimine.

$$$$
524
  

 23 22  0  0  0  0  0  0  0  0999 V2000
   18.7838  -15.3622   -0.0566 N   0  0  0  0  0  0  0  0  0  1  0  0
   17.9538  -16.5318    0.3990 C   0  0  0  0  0  0  0  0  0  2  0  0
   16.5677  -16.6937   -0.3055 C   0  0  1  0  0  0  0  0  0  3  0  0
   15.8927  -17.9739    0.2166 C   0  0  0  0  0  0  0  0  0  4  0  0
   14.6262  -18.1397   -0.4260 O   0  0  0  0  0  0  0  0  0  5  0  0
   15.7058  -15.5949   -0.0319 O   0  0  0  0  0  0  0  0  0  6  0  0
   20.2121  -15.4504    0.2653 C   0  0  0  0  0  0  0  0  0  7  0  0
   20.9410  -14.3201   -0.3993 C   0  0  0  0  0  0  0  0  0  8  0  0
   22.2431  -14.1494   -0.1826 C   0  0  0  0  0  0  0  0  0  9  0  0
   18.3054  -14.0772    0.1652 N   0  0  0  0  0  0  0  0  0 10  0  0
   17.1789  -13.8273    0.3584 O   0  0  0  0  0  0  0  0  0 11  0  0
   18.4812  -17.3654    0.2346 H   0  0  0  0  0  0  0  0  0  0  0  0
   17.7897  -16.4286    1.3800 H   0  0  0  0  0  0  0  0  0  0  0  0
   16.7260  -16.7374   -1.2920 H   0  0  0  0  0  0  0  0  0  0  0  0
   16.4739  -18.7627    0.0163 H   0  0  0  0  0  0  0  0  0  0  0  0
   15.7582  -17.9007    1.2048 H   0  0  0  0  0  0  0  0  0  0  0  0
   14.1865  -18.9716   -0.0874 H   0  0  0  0  0  0  0  0  0  0  0  0
   14.8315  -15.7324   -0.4973 H   0  0  0  0  0  0  0  0  0  0  0  0
   20.3355  -15.3907    1.2559 H   0  0  0  0  0  0  0  0  0  0  0  0
   20.5755  -16.3218   -0.0644 H   0  0  0  0  0  0  0  0  0  0  0  0
   20.4486  -13.6950   -1.0050 H   0  0  0  0  0  0  0  0  0  0  0  0
   22.7292  -13.3961   -0.6254 H   0  0  0  0  0  0  0  0  0  0  0  0
   22.7353  -14.7746    0.4232 H   0  0  0  0  0  0  0  0  0  0  0  0
  1  2  1  0  0  0  0
  1  7  1  0  0  0  0
  1 10  1  0  0  0  0
  2  3  1  0  0  0  0
  3  4  1  0  0  0  0
  3  6  1  0  0  0  0
  4  5  1  0  0  0  0
  7  8  1  0  0  0  0
  8  9  2  0  0  0  0
 10 11  2  0  0  0  0
  2 12  1  0  0  0  0
  2 13  1  0  0  0  0
  3 14  1  0  0  0  0
  4 15  1  0  0  0  0
  4 16  1  0  0  0  0
  5 17  1  0  0  0  0
  6 18  1  0  0  0  0
  7 19  1  0  0  0  0
  7 20  1  0  0  0  0
  8 21  1  0  0  0  0
  9 22  1  0  0  0  0
  9 23  1  0  0  0  0
M  END
>  <Substance ID> (524)
524

>  <Mouse_Female_Canc> (524)
ND

>  <SAL> (524)
ND

>  <Rat_Male_Canc> (524)
ND

>  <TD50_Rat> (524)
0.825

>  <TD50_Mouse> (524)
ND

>  <Rat_Female_Canc> (524)
3

>  <Canc> (524)
3

>  <MolWeight> (524)
160.17

>  <Mouse_Male_Canc> (524)
ND

>  <Mouse_Male_NTP> (524)
ND

>  <ChemName> (524)
N-nitrosoallyl-2,3-dihydroxypropylamine

>  <Rat_Male_NTP> (524)
ND

>  <Reference> (524)
CPDB

>  <Formula> (524)
C6H12N2O3

>  <SMILES> (524)
N(CC(CO)O)(CC=C)N=O

>  <Rat_Female_NTP> (524)
ND

>  <CAS> (524)
88208-16-6

>  <Mouse_Female_NTP> (524)
ND

>  <Synonyms> (524)
-

$$$$
525


 17 17  0  0  0  0  0  0  0  0999 V2000
    2.5123  -85.9077    0.0001 C   0  0  0  0  0  0  0  0  0  0  0  0
    2.7957  -87.2092   -0.0002 C   0  0  0  0  0  0  0  0  0  0  0  0
    5.1026  -86.8260   -0.0005 C   0  0  0  0  0  0  0  0  0  0  0  0
    4.8499  -85.3839    0.0005 C   0  0  0  0  0  0  0  0  0  0  0  0
    4.1313  -87.6515   -0.0006 N   0  0  0  0  0  0  0  0  0  0  0  0
    3.5981  -84.9406    0.0002 C   0  0  0  0  0  0  0  0  0  0  0  0
    6.4163  -87.2984   -0.0007 N   0  0  0  0  0  0  0  0  0  0  0  0
    7.5123  -86.3720   -0.0010 C   0  0  0  0  0  0  0  0  0  0  0  0
    6.6533  -88.6070    0.0007 N   0  0  0  0  0  0  0  0  0  0  0  0
    7.7606  -89.0032   -0.0001 O   0  0  0  0  0  0  0  0  0  0  0  0
    1.5614  -85.5985    0.0002 H   0  0  0  0  0  0  0  0  0  0  0  0
    2.0523  -87.8781   -0.0001 H   0  0  0  0  0  0  0  0  0  0  0  0
    5.6135  -84.7382    0.0014 H   0  0  0  0  0  0  0  0  0  0  0  0
    3.4056  -83.9593    0.0000 H   0  0  0  0  0  0  0  0  0  0  0  0
    8.3758  -86.8763   -0.0011 H   0  0  0  0  0  0  0  0  0  0  0  0
    7.4632  -85.7965    0.8155 H   0  0  0  0  0  0  0  0  0  0  0  0
    7.4628  -85.7965   -0.8173 H   0  0  0  0  0  0  0  0  0  0  0  0
  1  2  2  0  0  0  0
  3  4  1  0  0  0  0
  1  6  1  0  0  0  0
  2  5  1  0  0  0  0
  5  3  2  0  0  0  0
  4  6  2  0  0  0  0
  3  7  1  0  0  0  0
  7  8  1  0  0  0  0
  7  9  1  0  0  0  0
  9 10  2  0  0  0  0
  1 11  1  0  0  0  0
  2 12  1  0  0  0  0
  4 13  1  0  0  0  0
  6 14  1  0  0  0  0
  8 15  1  0  0  0  0
  8 16  1  0  0  0  0
  8 17  1  0  0  0  0
M  END
>  <Substance ID> (525)
525

>  <Mouse_Female_Canc> (525)
ND

>  <SAL> (525)
3

>  <Rat_Male_Canc> (525)
ND

>  <TD50_Rat> (525)
0.214

>  <TD50_Mouse> (525)
ND

>  <Rat_Female_Canc> (525)
3

>  <Canc> (525)
3

>  <MolWeight> (525)
137.14

>  <Mouse_Male_Canc> (525)
ND

>  <Mouse_Male_NTP> (525)
ND

>  <ChemName> (525)
2-Nitrosomethylaminopyridine

>  <Rat_Male_NTP> (525)
ND

>  <Reference> (525)
CPDB

>  <Formula> (525)
C6H7N3O

>  <SMILES> (525)
C1=CC=CC(=N1)N(N=O)C

>  <Rat_Female_NTP> (525)
ND

>  <CAS> (525)
16219-98-0

>  <Mouse_Female_NTP> (525)
ND

>  <Synonyms> (525)
-

$$$$
526


 27 28  0  0  0  0  0  0  0  0999 V2000
   33.7609   -5.5976   -0.1738 C   0  0  0  0  0  0  0  0  0  0  0  0
   33.9738   -7.0398   -0.6517 C   0  0  0  0  0  0  0  0  0  0  0  0
   35.1124   -7.6724    0.1588 C   0  0  0  0  0  0  0  0  0  0  0  0
   36.3989   -6.8834   -0.1237 C   0  0  0  0  0  0  0  0  0  0  0  0
   36.2448   -5.4141    0.3446 C   0  0  2  0  0  0  0  0  0  0  0  0
   34.9976   -4.7933   -0.3006 N   0  0  0  0  0  0  0  0  0  0  0  0
   37.6178   -4.7258    0.0489 C   0  0  0  0  0  0  0  0  0  0  0  0
   38.7132   -5.4847   -0.0376 C   0  0  0  0  0  0  0  0  0  0  0  0
   40.1238   -3.6618   -0.4622 C   0  0  0  0  0  0  0  0  0  0  0  0
   38.9718   -2.7764   -0.3797 C   0  0  0  0  0  0  0  0  0  0  0  0
   39.9806   -4.9171   -0.3032 N   0  0  0  0  0  0  0  0  0  0  0  0
   37.7722   -3.2912   -0.1397 C   0  0  0  0  0  0  0  0  0  0  0  0
   34.6334   -3.4905    0.0512 N   0  0  0  0  0  0  0  0  0  0  0  0
   35.3420   -2.6979    0.5371 O   0  0  0  0  0  0  0  0  0  0  0  0
   33.0416   -5.1758   -0.7258 H   0  0  0  0  0  0  0  0  0  0  0  0
   33.4802   -5.6120    0.7858 H   0  0  0  0  0  0  0  0  0  0  0  0
   33.1339   -7.5652   -0.5159 H   0  0  0  0  0  0  0  0  0  0  0  0
   34.2139   -7.0391   -1.6225 H   0  0  0  0  0  0  0  0  0  0  0  0
   34.8971   -7.6304    1.1345 H   0  0  0  0  0  0  0  0  0  0  0  0
   35.2335   -8.6264   -0.1155 H   0  0  0  0  0  0  0  0  0  0  0  0
   37.1600   -7.3075    0.3671 H   0  0  0  0  0  0  0  0  0  0  0  0
   36.5854   -6.8982   -1.1060 H   0  0  0  0  0  0  0  0  0  0  0  0
   36.0679   -5.3028    1.3225 H   0  0  0  0  0  0  0  0  0  0  0  0
   38.6356   -6.4737    0.0878 H   0  0  0  0  0  0  0  0  0  0  0  0
   41.0311   -3.2830   -0.6445 H   0  0  0  0  0  0  0  0  0  0  0  0
   39.0828   -1.7902   -0.5026 H   0  0  0  0  0  0  0  0  0  0  0  0
   36.9732   -2.6922   -0.0883 H   0  0  0  0  0  0  0  0  0  0  0  0
  1  2  1  0  0  0  0
  1  6  1  0  0  0  0
  2  3  1  0  0  0  0
  3  4  1  0  0  0  0
  4  5  1  0  0  0  0
  5  6  1  0  0  0  0
  5  7  1  6  0  0  0
  7  8  2  0  0  0  0
  9 10  1  0  0  0  0
  7 12  1  0  0  0  0
  8 11  1  0  0  0  0
 11  9  2  0  0  0  0
 10 12  2  0  0  0  0
  6 13  1  0  0  0  0
 13 14  2  0  0  0  0
  1 15  1  0  0  0  0
  1 16  1  0  0  0  0
  2 17  1  0  0  0  0
  2 18  1  0  0  0  0
  3 19  1  0  0  0  0
  3 20  1  0  0  0  0
  4 21  1  0  0  0  0
  4 22  1  0  0  0  0
  5 23  1  0  0  0  0
  8 24  1  0  0  0  0
  9 25  1  0  0  0  0
 10 26  1  0  0  0  0
 12 27  1  0  0  0  0
M  END
>  <Substance ID> (526)
526

>  <Mouse_Female_Canc> (526)
3

>  <SAL> (526)
ND

>  <Rat_Male_Canc> (526)
3

>  <TD50_Rat> (526)
11.9

>  <TD50_Mouse> (526)
ND

>  <Rat_Female_Canc> (526)
3

>  <Canc> (526)
3

>  <MolWeight> (526)
191.23

>  <Mouse_Male_Canc> (526)
ND

>  <Mouse_Male_NTP> (526)
ND

>  <ChemName> (526)
Nitrosoanabasine

>  <Rat_Male_NTP> (526)
ND

>  <Reference> (526)
CPDB & Toxnet

>  <Formula> (526)
C10H13N3O

>  <SMILES> (526)
O=NN2[C@H](c1cccnc1)CCCC2

>  <Rat_Female_NTP> (526)
ND

>  <CAS> (526)
1133-64-8

>  <Mouse_Female_NTP> (526)
ND

>  <Synonyms> (526)
-

$$$$
527
 

 41 40  0  0  0  0  0  0  0  0999 V2000
   45.0241  -11.8338    0.2464 N   0  0  0  0  0  0  0  0  0  0  0  0
   43.7685  -11.1726   -0.2173 C   0  0  0  0  0  0  0  0  0  0  0  0
   42.4943  -11.8886    0.2893 C   0  0  0  0  0  0  0  0  0  0  0  0
   41.2516  -11.1407   -0.2190 C   0  0  0  0  0  0  0  0  0  0  0  0
   39.9860  -11.8701    0.2610 C   0  0  0  0  0  0  0  0  0  0  0  0
   46.2451  -11.0181    0.2092 C   0  0  0  0  0  0  0  0  0  0  0  0
   38.7426  -11.1089   -0.2272 C   0  0  0  0  0  0  0  0  0  0  0  0
   37.4760  -11.8454    0.2394 C   0  0  0  0  0  0  0  0  0  0  0  0
   36.2345  -11.0655   -0.2240 C   0  0  0  0  0  0  0  0  0  0  0  0
   34.9655  -11.8002    0.2388 C   0  0  0  0  0  0  0  0  0  0  0  0
   33.7265  -11.0019   -0.2011 C   0  0  0  0  0  0  0  0  0  0  0  0
   32.4543  -11.7327    0.2623 C   0  0  0  0  0  0  0  0  0  0  0  0
   45.2416  -13.1694   -0.0737 N   0  0  0  0  0  0  0  0  0  0  0  0
   44.3825  -13.8921   -0.4192 O   0  0  0  0  0  0  0  0  0  0  0  0
   31.2156  -10.9242   -0.1637 C   0  0  0  0  0  0  0  0  0  0  0  0
   43.7606  -10.2305    0.1179 H   0  0  0  0  0  0  0  0  0  0  0  0
   43.7584  -11.1712   -1.2173 H   0  0  0  0  0  0  0  0  0  0  0  0
   42.4813  -12.8280   -0.0531 H   0  0  0  0  0  0  0  0  0  0  0  0
   42.4922  -11.8977    1.2892 H   0  0  0  0  0  0  0  0  0  0  0  0
   41.2545  -10.2069    0.1388 H   0  0  0  0  0  0  0  0  0  0  0  0
   41.2631  -11.1151   -1.2186 H   0  0  0  0  0  0  0  0  0  0  0  0
   39.9754  -12.7989   -0.1095 H   0  0  0  0  0  0  0  0  0  0  0  0
   39.9822  -11.9093    1.2602 H   0  0  0  0  0  0  0  0  0  0  0  0
   47.0183  -11.5593    0.5396 H   0  0  0  0  0  0  0  0  0  0  0  0
   46.1276  -10.2146    0.7928 H   0  0  0  0  0  0  0  0  0  0  0  0
   46.4217  -10.7243   -0.7303 H   0  0  0  0  0  0  0  0  0  0  0  0
   38.7485  -10.1833    0.1511 H   0  0  0  0  0  0  0  0  0  0  0  0
   38.7517  -11.0614   -1.2261 H   0  0  0  0  0  0  0  0  0  0  0  0
   37.4595  -12.7642   -0.1551 H   0  0  0  0  0  0  0  0  0  0  0  0
   37.4761  -11.9105    1.2373 H   0  0  0  0  0  0  0  0  0  0  0  0
   36.2509  -10.1473    0.1717 H   0  0  0  0  0  0  0  0  0  0  0  0
   36.2359  -10.9991   -1.2218 H   0  0  0  0  0  0  0  0  0  0  0  0
   34.9386  -12.7115   -0.1721 H   0  0  0  0  0  0  0  0  0  0  0  0
   34.9725  -11.8834    1.2353 H   0  0  0  0  0  0  0  0  0  0  0  0
   33.7549  -10.0901    0.2086 H   0  0  0  0  0  0  0  0  0  0  0  0
   33.7194  -10.9200   -1.1977 H   0  0  0  0  0  0  0  0  0  0  0  0
   32.4201  -12.6404   -0.1560 H   0  0  0  0  0  0  0  0  0  0  0  0
   32.4664  -11.8244    1.2580 H   0  0  0  0  0  0  0  0  0  0  0  0
   30.3880  -11.3981    0.1368 H   0  0  0  0  0  0  0  0  0  0  0  0
   31.2034  -10.8321   -1.1595 H   0  0  0  0  0  0  0  0  0  0  0  0
   31.2497  -10.0163    0.2542 H   0  0  0  0  0  0  0  0  0  0  0  0
  1  2  1  0  0  0  0
  2  3  1  0  0  0  0
  3  4  1  0  0  0  0
  4  5  1  0  0  0  0
  1  6  1  0  0  0  0
  5  7  1  0  0  0  0
  7  8  1  0  0  0  0
  8  9  1  0  0  0  0
  9 10  1  0  0  0  0
 11 10  1  0  0  0  0
 11 12  1  0  0  0  0
  1 13  1  0  0  0  0
 13 14  2  0  0  0  0
 12 15  1  0  0  0  0
  2 16  1  0  0  0  0
  2 17  1  0  0  0  0
  3 18  1  0  0  0  0
  3 19  1  0  0  0  0
  4 20  1  0  0  0  0
  4 21  1  0  0  0  0
  5 22  1  0  0  0  0
  5 23  1  0  0  0  0
  6 24  1  0  0  0  0
  6 25  1  0  0  0  0
  6 26  1  0  0  0  0
  7 27  1  0  0  0  0
  7 28  1  0  0  0  0
  8 29  1  0  0  0  0
  8 30  1  0  0  0  0
  9 31  1  0  0  0  0
  9 32  1  0  0  0  0
 10 33  1  0  0  0  0
 10 34  1  0  0  0  0
 11 35  1  0  0  0  0
 11 36  1  0  0  0  0
 12 37  1  0  0  0  0
 12 38  1  0  0  0  0
 15 39  1  0  0  0  0
 15 40  1  0  0  0  0
 15 41  1  0  0  0  0
M  END
>  <Substance ID> (527)
527

>  <Mouse_Female_Canc> (527)
ND

>  <SAL> (527)
ND

>  <Rat_Male_Canc> (527)
3

>  <TD50_Rat> (527)
2.37

>  <TD50_Mouse> (527)
ND

>  <Rat_Female_Canc> (527)
ND

>  <Canc> (527)
3

>  <MolWeight> (527)
214.35

>  <Mouse_Male_Canc> (527)
ND

>  <Mouse_Male_NTP> (527)
ND

>  <ChemName> (527)
Nitrosomethylundecylamine

>  <Rat_Male_NTP> (527)
ND

>  <Reference> (527)
CPDB

>  <Formula> (527)
C12H26N2O

>  <SMILES> (527)
CN(CCCCCCCCCCC)N=O

>  <Rat_Female_NTP> (527)
ND

>  <CAS> (527)
68107-26-6

>  <Mouse_Female_NTP> (527)
ND

>  <Synonyms> (527)
-

$$$$
528


 25 24  0  0  0  0  0  0  0  0999 V2000
   32.1835  -24.3469   -0.0486 N   0  0  0  0  0  0  0  0  0  0  0  0
   33.5046  -24.1892    0.0082 N   0  0  0  0  0  0  0  0  0  0  0  0
   34.2163  -25.1128   -0.1522 O   0  0  0  0  0  0  0  0  0  0  0  0
   31.3545  -23.1271    0.2101 C   0  0  0  0  0  0  0  0  0  0  0  0
   29.8822  -23.0623   -0.3287 C   0  0  2  0  0  0  0  0  0  0  0  0
   29.8191  -23.1338   -1.8716 C   0  0  0  0  0  0  0  0  0  0  0  0
   29.3024  -21.8298    0.0969 O   0  0  0  0  0  0  0  0  0  0  0  0
   31.6798  -25.7116   -0.3634 C   0  0  0  0  0  0  0  0  0  0  0  0
   30.4637  -26.2306    0.4679 C   0  0  2  0  0  0  0  0  0  0  0  0
   30.7976  -26.2913    1.9716 C   0  0  0  0  0  0  0  0  0  0  0  0
   30.1126  -27.5360    0.0078 O   0  0  0  0  0  0  0  0  0  0  0  0
   31.3058  -23.0143    1.2025 H   0  0  0  0  0  0  0  0  0  0  0  0
   31.8446  -22.3528   -0.1902 H   0  0  0  0  0  0  0  0  0  0  0  0
   29.3837  -23.8501    0.0332 H   0  0  0  0  0  0  0  0  0  0  0  0
   28.8655  -23.0893   -2.1691 H   0  0  0  0  0  0  0  0  0  0  0  0
   30.2251  -23.9931   -2.1828 H   0  0  0  0  0  0  0  0  0  0  0  0
   30.3259  -22.3654   -2.2624 H   0  0  0  0  0  0  0  0  0  0  0  0
   28.3619  -21.7702   -0.2377 H   0  0  0  0  0  0  0  0  0  0  0  0
   31.4111  -25.7185   -1.3266 H   0  0  0  0  0  0  0  0  0  0  0  0
   32.4355  -26.3513   -0.2231 H   0  0  0  0  0  0  0  0  0  0  0  0
   29.6997  -25.5973    0.3445 H   0  0  0  0  0  0  0  0  0  0  0  0
   30.0023  -26.6262    2.4769 H   0  0  0  0  0  0  0  0  0  0  0  0
   31.0379  -25.3768    2.2973 H   0  0  0  0  0  0  0  0  0  0  0  0
   31.5694  -26.9102    2.1175 H   0  0  0  0  0  0  0  0  0  0  0  0
   29.3341  -27.8774    0.5344 H   0  0  0  0  0  0  0  0  0  0  0  0
  1  2  1  0  0  0  0
  2  3  2  0  0  0  0
  1  4  1  0  0  0  0
  4  5  1  0  0  0  0
  5  6  1  0  0  0  0
  5  7  1  0  0  0  0
  1  8  1  0  0  0  0
  8  9  1  0  0  0  0
  9 10  1  0  0  0  0
  9 11  1  0  0  0  0
  4 12  1  0  0  0  0
  4 13  1  0  0  0  0
  5 14  1  0  0  0  0
  6 15  1  0  0  0  0
  6 16  1  0  0  0  0
  6 17  1  0  0  0  0
  7 18  1  0  0  0  0
  8 19  1  0  0  0  0
  8 20  1  0  0  0  0
  9 21  1  0  0  0  0
 10 22  1  0  0  0  0
 10 23  1  0  0  0  0
 10 24  1  0  0  0  0
 11 25  1  0  0  0  0
M  END
>  <Substance ID> (528)
528

>  <Mouse_Female_Canc> (528)
3

>  <SAL> (528)
3

>  <Rat_Male_Canc> (528)
3

>  <TD50_Rat> (528)
0.846

>  <TD50_Mouse> (528)
ND

>  <Rat_Female_Canc> (528)
3

>  <Canc> (528)
3

>  <MolWeight> (528)
162.19

>  <Mouse_Male_Canc> (528)
3

>  <Mouse_Male_NTP> (528)
ND

>  <ChemName> (528)
N-nitrosobis(2-hydroxypropyl)amine

>  <Rat_Male_NTP> (528)
ND

>  <Reference> (528)
CPDB & Toxnet

>  <Formula> (528)
C6H14N2O3

>  <SMILES> (528)
O=NN(CC(C)O)CC(C)O

>  <Rat_Female_NTP> (528)
ND

>  <CAS> (528)
53609-64-6

>  <Mouse_Female_NTP> (528)
ND

>  <Synonyms> (528)
DIISOPROPANOLNITROSAMINE.

$$$$
529


 22 22  0  0  0  0  0  0  0  0999 V2000
   36.3162  -35.3152   -0.0005 N   0  0  0  0  0  0  0  0  0  0  0  0
   37.4841  -34.5434    0.0002 N   0  0  0  0  0  0  0  0  0  0  0  0
   35.1370  -34.4354   -0.0001 C   0  0  0  0  0  0  0  0  0  0  0  0
   33.8625  -35.3021   -0.0014 C   0  0  0  0  0  0  0  0  0  0  0  0
   32.6361  -34.4323   -0.0001 C   0  0  0  0  0  0  0  0  0  0  0  0
   32.7495  -33.1050    0.0009 C   0  0  0  0  0  0  0  0  0  0  0  0
   30.3413  -32.8332   -0.0002 C   0  0  0  0  0  0  0  0  0  0  0  0
   30.2168  -34.2907    0.0002 C   0  0  0  0  0  0  0  0  0  0  0  0
   31.5471  -32.2681    0.0004 C   0  0  0  0  0  0  0  0  0  0  0  0
   31.3095  -35.0514   -0.0001 C   0  0  0  0  0  0  0  0  0  0  0  0
   36.2999  -35.8916   -0.8176 H   0  0  0  0  0  0  0  0  0  0  0  0
   38.2823  -35.1458   -0.0001 H   0  0  0  0  0  0  0  0  0  0  0  0
   37.5026  -33.9668    0.8170 H   0  0  0  0  0  0  0  0  0  0  0  0
   35.1494  -33.8592    0.8171 H   0  0  0  0  0  0  0  0  0  0  0  0
   35.1500  -33.8577   -0.8162 H   0  0  0  0  0  0  0  0  0  0  0  0
   33.8568  -35.8780   -0.8189 H   0  0  0  0  0  0  0  0  0  0  0  0
   33.8568  -35.8805    0.8144 H   0  0  0  0  0  0  0  0  0  0  0  0
   33.6548  -32.6801    0.0020 H   0  0  0  0  0  0  0  0  0  0  0  0
   29.5210  -32.2613   -0.0011 H   0  0  0  0  0  0  0  0  0  0  0  0
   29.3115  -34.7155    0.0008 H   0  0  0  0  0  0  0  0  0  0  0  0
   31.6318  -31.2717    0.0005 H   0  0  0  0  0  0  0  0  0  0  0  0
   31.2239  -36.0477   -0.0003 H   0  0  0  0  0  0  0  0  0  0  0  0
  1  2  1  0  0  0  0
  1  3  1  0  0  0  0
  3  4  1  0  0  0  0
  4  5  1  0  0  0  0
  5  6  2  0  0  0  0
  7  8  1  0  0  0  0
  5 10  1  0  0  0  0
  6  9  1  0  0  0  0
  9  7  2  0  0  0  0
  8 10  2  0  0  0  0
  1 11  1  0  0  0  0
  2 12  1  0  0  0  0
  2 13  1  0  0  0  0
  3 14  1  0  0  0  0
  3 15  1  0  0  0  0
  4 16  1  0  0  0  0
  4 17  1  0  0  0  0
  6 18  1  0  0  0  0
  7 19  1  0  0  0  0
  8 20  1  0  0  0  0
  9 21  1  0  0  0  0
 10 22  1  0  0  0  0
M  END
>  <Substance ID> (529)
529

>  <Mouse_Female_Canc> (529)
3

>  <SAL> (529)
3

>  <Rat_Male_Canc> (529)
ND

>  <TD50_Rat> (529)
ND

>  <TD50_Mouse> (529)
14.60

>  <Rat_Female_Canc> (529)
ND

>  <Canc> (529)
3

>  <MolWeight> (529)
136.20

>  <Mouse_Male_Canc> (529)
1

>  <Mouse_Male_NTP> (529)
ND

>  <ChemName> (529)
Phenylethylhydrazine sulfate

>  <Rat_Male_NTP> (529)
ND

>  <Reference> (529)
CPDB

>  <Formula> (529)
C8H12N2

>  <SMILES> (529)
C1(=CC=CC=C1)CCNN

>  <Rat_Female_NTP> (529)
ND

>  <CAS> (529)
156-51-4

>  <Mouse_Female_NTP> (529)
ND

>  <Synonyms> (529)
Phenelzine sulfate.

$$$$
530


 21 20  0  0  0  0  0  0  0  0999 V2000
   32.1557  -45.2743    0.1722 N   0  0  0  0  0  0  0  0  0  0  0  0
   33.4680  -45.1134    0.0294 N   0  0  0  0  0  0  0  0  0  0  0  0
   34.1721  -46.0527   -0.0376 O   0  0  0  0  0  0  0  0  0  0  0  0
   31.3358  -44.0544    0.2341 C   0  0  0  0  0  0  0  0  0  0  0  0
   30.2373  -43.9021   -0.8226 C   0  0  0  0  0  0  0  0  0  0  0  0
   30.1814  -44.7324   -2.0851 C   0  0  0  0  0  0  0  0  0  0  0  0
   29.3768  -43.0312   -0.6472 O   0  0  0  0  0  0  0  0  0  0  0  0
   31.6397  -46.6784    0.2497 C   0  0  0  0  0  0  0  0  0  0  0  0
   30.3095  -47.0184    0.9753 C   0  0  0  0  0  0  0  0  0  0  0  0
   29.7051  -46.1958    2.0994 C   0  0  0  0  0  0  0  0  0  0  0  0
   29.7361  -48.0643    0.6545 O   0  0  0  0  0  0  0  0  0  0  0  0
   30.8962  -44.0315    1.1320 H   0  0  0  0  0  0  0  0  0  0  0  0
   31.9518  -43.2719    0.1440 H   0  0  0  0  0  0  0  0  0  0  0  0
   29.3839  -44.4647   -2.6256 H   0  0  0  0  0  0  0  0  0  0  0  0
   30.1111  -45.7006   -1.8450 H   0  0  0  0  0  0  0  0  0  0  0  0
   31.0123  -44.5817   -2.6207 H   0  0  0  0  0  0  0  0  0  0  0  0
   31.5335  -46.9917   -0.6940 H   0  0  0  0  0  0  0  0  0  0  0  0
   32.3520  -47.2155    0.7016 H   0  0  0  0  0  0  0  0  0  0  0  0
   28.8501  -46.6184    2.3999 H   0  0  0  0  0  0  0  0  0  0  0  0
   29.5213  -45.2685    1.7730 H   0  0  0  0  0  0  0  0  0  0  0  0
   30.3453  -46.1578    2.8668 H   0  0  0  0  0  0  0  0  0  0  0  0
  1  2  1  0  0  0  0
  2  3  2  0  0  0  0
  1  4  1  0  0  0  0
  4  5  1  0  0  0  0
  5  6  1  0  0  0  0
  5  7  2  0  0  0  0
  1  8  1  0  0  0  0
  8  9  1  0  0  0  0
  9 10  1  0  0  0  0
  9 11  2  0  0  0  0
  4 12  1  0  0  0  0
  4 13  1  0  0  0  0
  6 14  1  0  0  0  0
  6 15  1  0  0  0  0
  6 16  1  0  0  0  0
  8 17  1  0  0  0  0
  8 18  1  0  0  0  0
 10 19  1  0  0  0  0
 10 20  1  0  0  0  0
 10 21  1  0  0  0  0
M  END
>  <Substance ID> (530)
530

>  <Mouse_Female_Canc> (530)
3

>  <SAL> (530)
3

>  <Rat_Male_Canc> (530)
3

>  <TD50_Rat> (530)
0.491

>  <TD50_Mouse> (530)
ND

>  <Rat_Female_Canc> (530)
3

>  <Canc> (530)
3

>  <MolWeight> (530)
158.16

>  <Mouse_Male_Canc> (530)
3

>  <Mouse_Male_NTP> (530)
ND

>  <ChemName> (530)
N-nitrosobis(2-oxopropyl)amine

>  <Rat_Male_NTP> (530)
ND

>  <Reference> (530)
CPDB & Toxnet

>  <Formula> (530)
C6H10N2O3

>  <SMILES> (530)
O=NN(CC(=O)C)CC(=O)C

>  <Rat_Female_NTP> (530)
ND

>  <CAS> (530)
60599-38-4

>  <Mouse_Female_NTP> (530)
ND

>  <Synonyms> (530)
-

$$$$
531


 18 18  0  0  0  0  0  0  0  0999 V2000
   32.5121  -53.7988    0.3017 C   0  0  0  0  0  0  0  0  0  0  0  0
   33.3470  -54.9577   -0.2768 C   0  0  0  0  0  0  0  0  0  0  0  0
   34.8119  -54.8066    0.1777 C   0  0  0  0  0  0  0  0  0  0  0  0
   35.3202  -53.4805   -0.2222 N   0  0  0  0  0  0  0  0  0  0  0  0
   34.5376  -52.3107    0.2178 C   0  0  0  0  0  0  0  0  0  0  0  0
   33.0728  -52.4680   -0.2365 C   0  0  0  0  0  0  0  0  0  0  0  0
   36.6606  -53.3354   -0.0161 N   0  0  0  0  0  0  0  0  0  0  0  0
   37.3503  -54.2845    0.0565 O   0  0  0  0  0  0  0  0  0  0  0  0
   31.5575  -53.8993    0.0213 H   0  0  0  0  0  0  0  0  0  0  0  0
   32.5695  -53.8086    1.3000 H   0  0  0  0  0  0  0  0  0  0  0  0
   32.9830  -55.8286    0.0533 H   0  0  0  0  0  0  0  0  0  0  0  0
   33.3031  -54.9346   -1.2756 H   0  0  0  0  0  0  0  0  0  0  0  0
   34.8625  -54.8962    1.1724 H   0  0  0  0  0  0  0  0  0  0  0  0
   35.3681  -55.5190   -0.2503 H   0  0  0  0  0  0  0  0  0  0  0  0
   34.5713  -52.2438    1.2150 H   0  0  0  0  0  0  0  0  0  0  0  0
   34.9238  -51.4812   -0.1856 H   0  0  0  0  0  0  0  0  0  0  0  0
   33.0313  -52.4680   -1.2356 H   0  0  0  0  0  0  0  0  0  0  0  0
   32.5292  -51.7081    0.1201 H   0  0  0  0  0  0  0  0  0  0  0  0
  1  2  1  0  0  0  0
  1  6  1  0  0  0  0
  2  3  1  0  0  0  0
  3  4  1  0  0  0  0
  4  5  1  0  0  0  0
  5  6  1  0  0  0  0
  4  7  1  0  0  0  0
  7  8  2  0  0  0  0
  1  9  1  0  0  0  0
  1 10  1  0  0  0  0
  2 11  1  0  0  0  0
  2 12  1  0  0  0  0
  3 13  1  0  0  0  0
  3 14  1  0  0  0  0
  5 15  1  0  0  0  0
  5 16  1  0  0  0  0
  6 17  1  0  0  0  0
  6 18  1  0  0  0  0
M  END
>  <Substance ID> (531)
531

>  <Mouse_Female_Canc> (531)
ND

>  <SAL> (531)
3

>  <Rat_Male_Canc> (531)
3

>  <TD50_Rat> (531)
1.43

>  <TD50_Mouse> (531)
1.3

>  <Rat_Female_Canc> (531)
3

>  <Canc> (531)
3

>  <MolWeight> (531)
114.15

>  <Mouse_Male_Canc> (531)
3

>  <Mouse_Male_NTP> (531)
ND

>  <ChemName> (531)
N-Nitrosopiperidine

>  <Rat_Male_NTP> (531)
ND

>  <Reference> (531)
CPDB

>  <Formula> (531)
C5H10N2O

>  <SMILES> (531)
O=NN1CCCCC1

>  <Rat_Female_NTP> (531)
ND

>  <CAS> (531)
100-75-4

>  <Mouse_Female_NTP> (531)
ND

>  <Synonyms> (531)
1-nitrosopiperidine; nitrosopiperidin; N-N-PIP; No-pip; NPIP; pyridine,hexahydro-N-nitroso.

$$$$
532


117121  0  0  0  0  0  0  0  0999 V2000
   -4.2283    4.9058    0.1321 C   0  0  1  0  0  0  0  0  0  1  0  0
   -2.6642    5.4148   -0.2684 C   0  0  2  0  0  0  0  0  0  2  0  0
   -1.3439    4.6998    0.3917 C   0  0  2  0  0  0  0  0  0  3  0  0
    0.0324    5.2725   -0.0614 C   0  0  2  0  0  0  0  0  0  4  0  0
    1.1589    4.3508    0.4510 C   0  0  0  0  0  0  0  0  0  5  0  0
    1.4929    1.6837    0.8996 O   0  0  0  0  0  0  0  0  0  6  0  0
    2.5583    1.2185    0.4968 C   0  0  0  0  0  0  0  0  0  7  0  0
    3.6793    2.1403    0.1661 C   0  0  0  0  0  0  0  0  0  8  0  0
    3.5589    3.4675   -0.1011 C   0  0  0  0  0  0  0  0  0  9  0  0
    2.3252    4.3837   -0.2083 C   0  0  0  0  0  0  0  0  0 10  0  0
    5.0530    1.5444    0.0509 C   0  0  0  0  0  0  0  0  0 11  0  0
   -4.4465    3.3165    0.1058 C   0  0  2  0  0  0  0  0  0 12  0  0
   -5.9624    2.5681    0.2238 C   0  0  1  0  0  0  0  0  0 13  0  0
   -5.6470    0.9966    0.3319 C   0  0  2  0  0  0  0  0  0 14  0  0
   -6.7108    2.9409    1.3774 O   0  0  0  0  0  0  0  0  0 15  0  0
   -6.5893    2.7702   -0.6617 H   0  0  0  0  0  0  0  0  0 16  0  0
   -6.7650   -0.0858    0.5326 C   0  0  1  0  0  0  0  0  0 17  0  0
   -5.8971   -1.4211    0.8497 C   0  0  0  0  0  0  0  0  0 18  0  0
   -5.7241   -2.6075    0.2160 C   0  0  0  0  0  0  0  0  0 19  0  0
   -4.6191   -3.4750    0.7623 O   0  0  0  0  0  0  0  0  0 20  0  0
   -4.1352   -4.5860   -0.1356 C   0  0  2  0  0  0  0  0  0 21  0  0
   -2.6318   -4.7448    0.1731 C   0  0  0  0  0  0  0  0  0 22  0  0
   -2.0639   -3.5288   -0.3246 C   0  0  0  0  0  0  0  0  0 23  0  0
   -2.9637   -3.0420   -1.1451 C   0  0  0  0  0  0  0  0  0 24  0  0
   -4.1303   -3.8151   -1.3179 O   0  0  0  0  0  0  0  0  0 25  0  0
   -5.0548   -5.8226   -0.1388 C   0  0  0  0  0  0  0  0  0 26  0  0
   -0.7733   -2.7874   -0.0999 C   0  0  0  0  0  0  0  0  0 27  0  0
   -0.7421   -1.5330   -0.5577 C   0  0  0  0  0  0  0  0  0 28  0  0
   -1.8426   -1.0375   -1.4299 C   0  0  0  0  0  0  0  0  0 29  0  0
   -2.8212   -1.8588   -1.7862 C   0  0  0  0  0  0  0  0  0 30  0  0
    0.4847   -3.3712    0.4265 C   0  0  0  0  0  0  0  0  0 31  0  0
    1.6035   -2.6132    0.4577 C   0  0  0  0  0  0  0  0  0 32  0  0
    1.5385   -1.1320    0.1443 C   0  0  0  0  0  0  0  0  0 33  0  0
    0.3856   -0.6646   -0.3519 C   0  0  0  0  0  0  0  0  0 34  0  0
   -1.7917    0.2267   -1.9925 O   0  0  0  0  0  0  0  0  0 35  0  0
    0.2264    0.6515   -0.7261 O   0  0  0  0  0  0  0  0  0 36  0  0
    0.5584   -4.7290    0.7133 O   0  0  0  0  0  0  0  0  0 37  0  0
    2.6988   -0.2347    0.3493 N   0  0  0  0  0  0  0  0  0 38  0  0
   -3.8194   -1.5213   -2.8456 C   0  0  0  0  0  0  0  0  0 39  0  0
   -2.0841   -5.6388    0.8262 O   0  0  0  0  0  0  0  0  0 40  0  0
   -7.4429    4.0971    1.0731 C   0  0  0  0  0  0  0  0  0 41  0  0
   -7.3801    4.5892   -0.0592 O   0  0  0  0  0  0  0  0  0 42  0  0
   -8.3518    4.7025    2.0922 C   0  0  0  0  0  0  0  0  0 43  0  0
    2.9006   -3.3126    0.6673 C   0  0  0  0  0  0  0  0  0 44  0  0
    4.0077   -2.7603    0.3397 N   0  0  0  0  0  0  0  0  0 45  0  0
    0.2148    6.7128    0.4609 C   0  0  0  0  0  0  0  0  0 46  0  0
    0.1112    5.2805   -1.1540 H   0  0  0  0  0  0  0  0  0 47  0  0
   -2.6471    6.4988   -0.0735 H   0  0  0  0  0  0  0  0  0 48  0  0
   -2.5074    5.1746   -1.7878 C   0  0  0  0  0  0  0  0  0 49  0  0
   -4.5177    5.2082    1.1475 H   0  0  0  0  0  0  0  0  0 50  0  0
   -5.0532    5.5807   -0.8213 O   0  0  0  0  0  0  0  0  0 51  0  0
   -5.0199    0.8379    1.1861 H   0  0  0  0  0  0  0  0  0 52  0  0
   -4.9628    0.6687   -0.9147 C   0  0  0  0  0  0  0  0  0 53  0  0
   -3.6831    2.8306    1.3955 C   0  0  0  0  0  0  0  0  0 54  0  0
   -3.9945    2.9649   -0.8272 H   0  0  0  0  0  0  0  0  0 55  0  0
   -1.3386    3.3443   -0.0640 O   0  0  0  0  0  0  0  0  0 56  0  0
   -1.3816    4.7390    1.4869 H   0  0  0  0  0  0  0  0  0 57  0  0
   -7.2943    0.1889    1.4470 H   0  0  0  0  0  0  0  0  0 58  0  0
   -7.6770   -0.1234   -0.5943 O   0  0  0  0  0  0  0  0  0 59  0  0
   -8.7434   -1.0483   -0.3484 C   0  0  0  0  0  0  0  0  0 60  0  0
    5.1554   -3.5025    0.2514 N   0  0  0  0  0  0  0  0  0 61  0  0
    5.0472   -4.9623    0.1735 C   0  0  0  0  0  0  0  0  0 62  0  0
    6.3805   -5.6966    0.4512 C   0  0  0  0  0  0  0  0  0 63  0  0
    7.4887   -5.0698   -0.2694 N   0  0  0  0  0  0  0  0  0 64  0  0
    7.6542   -3.7381    0.3234 C   0  0  0  0  0  0  0  0  0 65  0  0
    6.4290   -2.8340    0.0215 C   0  0  0  0  0  0  0  0  0 66  0  0
    8.7087   -5.8522   -0.0146 C   0  0  0  0  0  0  0  0  0 67  0  0
    1.0243    3.7539    1.2419 H   0  0  0  0  0  0  0  0  0  0  0  0
    4.4296    3.9341   -0.2563 H   0  0  0  0  0  0  0  0  0  0  0  0
    2.4079    5.1220   -0.8777 H   0  0  0  0  0  0  0  0  0  0  0  0
    5.7110    2.2632   -0.1732 H   0  0  0  0  0  0  0  0  0  0  0  0
    5.0572    0.8525   -0.6711 H   0  0  0  0  0  0  0  0  0  0  0  0
    5.3067    1.1201    0.9202 H   0  0  0  0  0  0  0  0  0  0  0  0
   -5.3750   -1.3536    1.6999 H   0  0  0  0  0  0  0  0  0  0  0  0
   -6.2900   -2.8872   -0.5595 H   0  0  0  0  0  0  0  0  0  0  0  0
   -4.6779   -6.5174   -0.7512 H   0  0  0  0  0  0  0  0  0  0  0  0
   -5.9665   -5.5598   -0.4547 H   0  0  0  0  0  0  0  0  0  0  0  0
   -5.1177   -6.1941    0.7876 H   0  0  0  0  0  0  0  0  0  0  0  0
   -2.6127    0.3807   -2.5422 H   0  0  0  0  0  0  0  0  0  0  0  0
   -0.7028    0.7912   -1.0681 H   0  0  0  0  0  0  0  0  0  0  0  0
    1.4718   -4.9487    1.0560 H   0  0  0  0  0  0  0  0  0  0  0  0
    3.6143   -0.6350    0.3888 H   0  0  0  0  0  0  0  0  0  0  0  0
   -4.4632   -2.2791   -2.9512 H   0  0  0  0  0  0  0  0  0  0  0  0
   -3.3460   -1.3635   -3.7122 H   0  0  0  0  0  0  0  0  0  0  0  0
   -4.3180   -0.6951   -2.5833 H   0  0  0  0  0  0  0  0  0  0  0  0
   -8.7902    5.5149    1.7079 H   0  0  0  0  0  0  0  0  0  0  0  0
   -7.8222    4.9608    2.9002 H   0  0  0  0  0  0  0  0  0  0  0  0
   -9.0522    4.0376    2.3518 H   0  0  0  0  0  0  0  0  0  0  0  0
    2.9071   -4.2278    1.0702 H   0  0  0  0  0  0  0  0  0  0  0  0
    1.1013    7.0663    0.1626 H   0  0  0  0  0  0  0  0  0  0  0  0
    0.1756    6.7130    1.4602 H   0  0  0  0  0  0  0  0  0  0  0  0
   -0.5141    7.2939    0.0990 H   0  0  0  0  0  0  0  0  0  0  0  0
   -1.5944    5.4605   -2.0785 H   0  0  0  0  0  0  0  0  0  0  0  0
   -3.1957    5.7053   -2.2825 H   0  0  0  0  0  0  0  0  0  0  0  0
   -2.6307    4.2023   -1.9865 H   0  0  0  0  0  0  0  0  0  0  0  0
   -6.0109    5.3400   -0.6637 H   0  0  0  0  0  0  0  0  0  0  0  0
   -4.7311   -0.3040   -0.9225 H   0  0  0  0  0  0  0  0  0  0  0  0
   -4.1257    1.2108   -0.9887 H   0  0  0  0  0  0  0  0  0  0  0  0
   -5.5620    0.8744   -1.6885 H   0  0  0  0  0  0  0  0  0  0  0  0
   -3.7590    1.8366    1.4737 H   0  0  0  0  0  0  0  0  0  0  0  0
   -4.0863    3.2598    2.2037 H   0  0  0  0  0  0  0  0  0  0  0  0
   -2.7186    3.0865    1.3288 H   0  0  0  0  0  0  0  0  0  0  0  0
   -0.5461    2.8674    0.3161 H   0  0  0  0  0  0  0  0  0  0  0  0
   -9.3617   -1.0615   -1.1342 H   0  0  0  0  0  0  0  0  0  0  0  0
   -9.2482   -0.7665    0.4676 H   0  0  0  0  0  0  0  0  0  0  0  0
   -8.3656   -1.9633   -0.2067 H   0  0  0  0  0  0  0  0  0  0  0  0
    4.3729   -5.2658    0.8467 H   0  0  0  0  0  0  0  0  0  0  0  0
    4.7362   -5.2078   -0.7446 H   0  0  0  0  0  0  0  0  0  0  0  0
    6.5711   -5.6669    1.4324 H   0  0  0  0  0  0  0  0  0  0  0  0
    6.2963   -6.6484    0.1561 H   0  0  0  0  0  0  0  0  0  0  0  0
    7.7540   -3.8321    1.3139 H   0  0  0  0  0  0  0  0  0  0  0  0
    8.4754   -3.3119   -0.0559 H   0  0  0  0  0  0  0  0  0  0  0  0
    6.4759   -2.0274    0.6107 H   0  0  0  0  0  0  0  0  0  0  0  0
    6.4712   -2.5504   -0.9365 H   0  0  0  0  0  0  0  0  0  0  0  0
    9.4785   -5.4379   -0.5001 H   0  0  0  0  0  0  0  0  0  0  0  0
    8.5775   -6.7897   -0.3371 H   0  0  0  0  0  0  0  0  0  0  0  0
    8.9004   -5.8615    0.9668 H   0  0  0  0  0  0  0  0  0  0  0  0
  1  2  1  0  0  0  0
  2  3  1  0  0  0  0
  3  4  1  0  0  0  0
  4  5  1  0  0  0  0
  6  7  2  0  0  0  0
  7  8  1  0  0  0  0
  8  9  2  0  0  0  0
  9 10  1  0  0  0  0
  5 10  2  0  0  0  0
  8 11  1  0  0  0  0
  1 12  1  0  0  0  0
 12 13  1  0  0  0  0
 13 14  1  0  0  0  0
 13 15  1  1  0  0  0
 13 16  1  6  0  0  0
 14 17  1  0  0  0  0
 17 18  1  0  0  0  0
 18 19  2  0  0  0  0
 19 20  1  0  0  0  0
 21 20  1  1  0  0  0
 21 22  1  0  0  0  0
 22 23  1  0  0  0  0
 23 24  2  0  0  0  0
 24 25  1  0  0  0  0
 21 25  1  0  0  0  0
 21 26  1  6  0  0  0
 23 27  1  0  0  0  0
 27 28  2  0  0  0  0
 28 29  1  0  0  0  0
 29 30  2  0  0  0  0
 24 30  1  0  0  0  0
 27 31  1  0  0  0  0
 31 32  2  0  0  0  0
 32 33  1  0  0  0  0
 33 34  2  0  0  0  0
 28 34  1  0  0  0  0
 29 35  1  0  0  0  0
 34 36  1  0  0  0  0
 31 37  1  0  0  0  0
 33 38  1  0  0  0  0
  7 38  1  0  0  0  0
 30 39  1  0  0  0  0
 22 40  2  0  0  0  0
 15 41  1  0  0  0  0
 41 42  2  0  0  0  0
 41 43  1  0  0  0  0
 32 44  1  0  0  0  0
 44 45  2  0  0  0  0
  4 46  1  1  0  0  0
  4 47  1  6  0  0  0
  2 48  1  1  0  0  0
  2 49  1  6  0  0  0
  1 50  1  1  0  0  0
  1 51  1  6  0  0  0
 14 52  1  1  0  0  0
 14 53  1  6  0  0  0
 12 54  1  1  0  0  0
 12 55  1  6  0  0  0
  3 56  1  6  0  0  0
  3 57  1  1  0  0  0
 17 58  1  1  0  0  0
 17 59  1  6  0  0  0
 59 60  1  0  0  0  0
 45 61  1  0  0  0  0
 61 62  1  0  0  0  0
 62 63  1  0  0  0  0
 63 64  1  0  0  0  0
 64 65  1  0  0  0  0
 65 66  1  0  0  0  0
 61 66  1  0  0  0  0
 64 67  1  0  0  0  0
  5 68  1  0  0  0  0
  9 69  1  0  0  0  0
 10 70  1  0  0  0  0
 11 71  1  0  0  0  0
 11 72  1  0  0  0  0
 11 73  1  0  0  0  0
 18 74  1  0  0  0  0
 19 75  1  0  0  0  0
 26 76  1  0  0  0  0
 26 77  1  0  0  0  0
 26 78  1  0  0  0  0
 35 79  1  0  0  0  0
 36 80  1  0  0  0  0
 37 81  1  0  0  0  0
 38 82  1  0  0  0  0
 39 83  1  0  0  0  0
 39 84  1  0  0  0  0
 39 85  1  0  0  0  0
 43 86  1  0  0  0  0
 43 87  1  0  0  0  0
 43 88  1  0  0  0  0
 44 89  1  0  0  0  0
 46 90  1  0  0  0  0
 46 91  1  0  0  0  0
 46 92  1  0  0  0  0
 49 93  1  0  0  0  0
 49 94  1  0  0  0  0
 49 95  1  0  0  0  0
 51 96  1  0  0  0  0
 53 97  1  0  0  0  0
 53 98  1  0  0  0  0
 53 99  1  0  0  0  0
 54100  1  0  0  0  0
 54101  1  0  0  0  0
 54102  1  0  0  0  0
 56103  1  0  0  0  0
 60104  1  0  0  0  0
 60105  1  0  0  0  0
 60106  1  0  0  0  0
 62107  1  0  0  0  0
 62108  1  0  0  0  0
 63109  1  0  0  0  0
 63110  1  0  0  0  0
 65111  1  0  0  0  0
 65112  1  0  0  0  0
 66113  1  0  0  0  0
 66114  1  0  0  0  0
 67115  1  0  0  0  0
 67116  1  0  0  0  0
 67117  1  0  0  0  0
M  END
>  <Substance ID> (532)
532

>  <Mouse_Female_Canc> (532)
3

>  <SAL> (532)
ND

>  <Rat_Male_Canc> (532)
1

>  <TD50_Rat> (532)
NP

>  <TD50_Mouse> (532)
33.6

>  <Rat_Female_Canc> (532)
1

>  <Canc> (532)
3

>  <MolWeight> (532)
822.95

>  <Mouse_Male_Canc> (532)
1

>  <Mouse_Male_NTP> (532)
ND

>  <ChemName> (532)
Rifampicin

>  <Rat_Male_NTP> (532)
ND

>  <Reference> (532)
CPDB

>  <Formula> (532)
C43H58N4O12

>  <SMILES> (532)
O=C4c5c2c(O)c(\C=N\N1CCN(C)CC1)c3c(O)c2c(O)c(c5O[C@@]4(O/C=C/[C@H](OC)[C@H]([C@@H](OC(=O)C)[C@H](C)[C@H](O)[C@H](C)[C@@H](O)[C@H](\C=C\C=C(/C(=O)N3)C)C)C)C)C

>  <Rat_Female_NTP> (532)
ND

>  <CAS> (532)
13292-46-1

>  <Mouse_Female_NTP> (532)
ND

>  <Synonyms> (532)
3-(((4-Methyl-1-piperazinyl)imino)-methyl)rifamycin; Abrifam; Dipicin; Eremfat; R/AMP; RIF; Rifa; Rifadin; Rifadin I.V.; Rifaldin; rifaldazine; Rifamate; Rifamicin AMP; Rifampin; Rifaprodin; Rifater; Rifobac; Rifoldin; Riforal; Rimactan; Rimycin.

$$$$
533


 16 16  0  0  0  0  0  0  0  0999 V2000
   36.0239  -69.3646    0.0019 C   0  0  0  0  0  0  0  0  0  0  0  0
   35.8930  -70.6898    0.0052 C   0  0  0  0  0  0  0  0  0  0  0  0
   38.2946  -70.9944   -0.0001 C   0  0  0  0  0  0  0  0  0  0  0  0
   38.4391  -69.5379   -0.0030 C   0  0  0  0  0  0  0  0  0  0  0  0
   37.0818  -71.5429    0.0045 C   0  0  0  0  0  0  0  0  0  0  0  0
   37.3572  -68.7614   -0.0021 C   0  0  0  0  0  0  0  0  0  0  0  0
   37.4956  -67.3721   -0.0042 N   0  0  0  0  0  0  0  0  0  0  0  0
   39.8072  -68.9191   -0.0073 C   0  0  0  0  0  0  0  0  0  0  0  0
   36.5408  -66.6865    0.0016 O   0  0  0  0  0  0  0  0  0  0  0  0
   35.2113  -68.7817    0.0022 H   0  0  0  0  0  0  0  0  0  0  0  0
   34.9819  -71.1020    0.0081 H   0  0  0  0  0  0  0  0  0  0  0  0
   39.1071  -71.5774   -0.0015 H   0  0  0  0  0  0  0  0  0  0  0  0
   36.9830  -72.5380    0.0074 H   0  0  0  0  0  0  0  0  0  0  0  0
   39.7229  -67.9227   -0.0089 H   0  0  0  0  0  0  0  0  0  0  0  0
   40.3035  -69.2124   -0.8244 H   0  0  0  0  0  0  0  0  0  0  0  0
   40.3075  -69.2096    0.8084 H   0  0  0  0  0  0  0  0  0  0  0  0
  1  2  2  0  0  0  0
  3  4  1  0  0  0  0
  1  6  1  0  0  0  0
  2  5  1  0  0  0  0
  5  3  2  0  0  0  0
  4  6  2  0  0  0  0
  6  7  1  0  0  0  0
  4  8  1  0  0  0  0
  7  9  2  0  0  0  0
  1 10  1  0  0  0  0
  2 11  1  0  0  0  0
  3 12  1  0  0  0  0
  5 13  1  0  0  0  0
  8 14  1  0  0  0  0
  8 15  1  0  0  0  0
  8 16  1  0  0  0  0
M  END
>  <Substance ID> (533)
533

>  <Mouse_Female_Canc> (533)
ND

>  <SAL> (533)
ND

>  <Rat_Male_Canc> (533)
3

>  <TD50_Rat> (533)
50.7

>  <TD50_Mouse> (533)
ND

>  <Rat_Female_Canc> (533)
ND

>  <Canc> (533)
3

>  <MolWeight> (533)
121.14

>  <Mouse_Male_Canc> (533)
ND

>  <Mouse_Male_NTP> (533)
ND

>  <ChemName> (533)
o-Nitrosotoluene

>  <Rat_Male_NTP> (533)
ND

>  <Reference> (533)
CPDB

>  <Formula> (533)
C7H7NO

>  <SMILES> (533)
CC1=C(C=CC=C1)N=O

>  <Rat_Female_NTP> (533)
ND

>  <CAS> (533)
611-23-4

>  <Mouse_Female_NTP> (533)
ND

>  <Synonyms> (533)
-

$$$$
534
 

 33 33  0  0  0  0  0  0  0  0999 V2000
   24.2505  -54.4474    0.4708 O   0  0  0  0  0  0  0  0  0  0  0  0
   24.0842  -55.7279   -0.1657 C   0  0  1  0  0  0  0  0  0  0  0  0
   25.2560  -56.6547    0.1828 C   0  0  2  0  0  0  0  0  0  0  0  0
   26.5432  -56.0119   -0.3089 C   0  0  1  0  0  0  0  0  0  0  0  0
   26.6891  -54.6368    0.3938 C   0  0  2  0  0  0  0  0  0  0  0  0
   25.4553  -53.7964    0.0279 C   0  0  1  0  0  0  0  0  0  0  0  0
   25.5578  -52.5216    0.6615 O   0  0  0  0  0  0  0  0  0  0  0  0
   22.7794  -56.3646    0.3203 C   0  0  0  0  0  0  0  0  0  0  0  0
   27.6292  -56.8845   -0.0105 O   0  0  0  0  0  0  0  0  0  0  0  0
   25.0780  -57.9173   -0.4585 O   0  0  0  0  0  0  0  0  0  0  0  0
   27.8965  -53.9097   -0.0585 N   0  0  0  0  0  0  0  0  0  0  0  0
   29.2222  -54.3951    0.1933 C   0  0  0  0  0  0  0  0  0  0  0  0
   30.3341  -53.6718   -0.2821 N   0  0  0  0  0  0  0  0  0  0  0  0
   29.3906  -55.4388    0.8325 O   0  0  0  0  0  0  0  0  0  0  0  0
   31.5814  -54.1556   -0.1665 N   0  0  0  0  0  0  0  0  0  0  0  0
   30.1347  -52.3958   -0.9094 C   0  0  0  0  0  0  0  0  0  0  0  0
   31.7821  -55.2395    0.2450 O   0  0  0  0  0  0  0  0  0  0  0  0
   21.6935  -55.5021   -0.0114 O   0  0  0  0  0  0  0  0  0  0  0  0
   24.0570  -55.5968   -1.1567 H   0  0  0  0  0  0  0  0  0  0  0  0
   25.2976  -56.7955    1.1720 H   0  0  0  0  0  0  0  0  0  0  0  0
   26.5334  -55.8626   -1.2976 H   0  0  0  0  0  0  0  0  0  0  0  0
   26.7694  -54.7866    1.3793 H   0  0  0  0  0  0  0  0  0  0  0  0
   25.4177  -53.6901   -0.9657 H   0  0  0  0  0  0  0  0  0  0  0  0
   26.3934  -52.0640    0.3576 H   0  0  0  0  0  0  0  0  0  0  0  0
   22.6522  -57.2509   -0.1249 H   0  0  0  0  0  0  0  0  0  0  0  0
   22.8166  -56.4913    1.3116 H   0  0  0  0  0  0  0  0  0  0  0  0
   28.4840  -56.4745   -0.3286 H   0  0  0  0  0  0  0  0  0  0  0  0
   25.8432  -58.5189   -0.2294 H   0  0  0  0  0  0  0  0  0  0  0  0
   27.7838  -53.0502   -0.5570 H   0  0  0  0  0  0  0  0  0  0  0  0
   31.0182  -52.0186   -1.1870 H   0  0  0  0  0  0  0  0  0  0  0  0
   29.6944  -51.7717   -0.2639 H   0  0  0  0  0  0  0  0  0  0  0  0
   29.5525  -52.5072   -1.7148 H   0  0  0  0  0  0  0  0  0  0  0  0
   20.8358  -55.9095    0.3022 H   0  0  0  0  0  0  0  0  0  0  0  0
  1  2  1  0  0  0  0
  1  6  1  0  0  0  0
  2  3  1  0  0  0  0
  3  4  1  0  0  0  0
  4  5  1  0  0  0  0
  5  6  1  0  0  0  0
  6  7  1  1  0  0  0
  2  8  1  1  0  0  0
  4  9  1  1  0  0  0
  3 10  1  6  0  0  0
  5 11  1  6  0  0  0
 11 12  1  0  0  0  0
 12 13  1  0  0  0  0
 12 14  2  0  0  0  0
 13 15  1  0  0  0  0
 13 16  1  0  0  0  0
 15 17  2  0  0  0  0
  8 18  1  0  0  0  0
  2 19  1  0  0  0  0
  3 20  1  0  0  0  0
  4 21  1  0  0  0  0
  5 22  1  0  0  0  0
  6 23  1  0  0  0  0
  7 24  1  0  0  0  0
  8 25  1  0  0  0  0
  8 26  1  0  0  0  0
  9 27  1  0  0  0  0
 10 28  1  0  0  0  0
 11 29  1  0  0  0  0
 16 30  1  0  0  0  0
 16 31  1  0  0  0  0
 16 32  1  0  0  0  0
 18 33  1  0  0  0  0
M  END
>  <Substance ID> (534)
534

>  <Mouse_Female_Canc> (534)
3

>  <SAL> (534)
3

>  <Rat_Male_Canc> (534)
3

>  <TD50_Rat> (534)
0.963

>  <TD50_Mouse> (534)
0.272

>  <Rat_Female_Canc> (534)
3

>  <Canc> (534)
3

>  <MolWeight> (534)
265.22

>  <Mouse_Male_Canc> (534)
3

>  <Mouse_Male_NTP> (534)
ND

>  <ChemName> (534)
Streptozotocin

>  <Rat_Male_NTP> (534)
ND

>  <Reference> (534)
CPDB

>  <Formula> (534)
C8H15N3O7

>  <SMILES> (534)
O=NN(C(=O)N[C@@H]1[C@@H](O)[C@H](O)[C@H](O[C@H]1O)CO)C

>  <Rat_Female_NTP> (534)
ND

>  <CAS> (534)
18883-66-4

>  <Mouse_Female_NTP> (534)
ND

>  <Synonyms> (534)
2-Deoxy-2-(3-methyl-3-nitrosoureido)-alpha(andbeta)-D-glucopyranose; 2-Deoxy-2-(3-methyl-3-nitrosoureido)-D-glucopyranose; 2-deoxy-2-(((methylnitrosoamino)carbonyl)amino)-D-glucopyranose; 2-deoxy-2-[[(methylnitrosoamino)carbonyl]amino]-D-glucose; D-2-deoxy-2-(3-methyl-3-nitrosoureido)glucopyranose; D-Glucose, 2-deoxy-2-(3-methyl-3-nitrosoureido)-; STR; Streptozocin; STZ; U-9889; Zanosar.

$$$$
535
 

 22 21  0  0  0  0  0  0  0  0999 V2000
   38.8119  -88.2482   -0.0133 C   0  0  0  0  0  0  0  0  0  0  0  0
   37.5434  -87.5162   -0.0067 N   0  0  0  0  0  0  0  0  0  0  0  0
   36.3123  -88.2381   -0.0027 C   0  0  0  0  0  0  0  0  0  0  0  0
   35.0512  -87.5507    0.0065 N   0  0  0  0  0  0  0  0  0  0  0  0
   33.8119  -88.3360    0.0196 C   0  0  0  0  0  0  0  0  0  0  0  0
   32.6074  -87.3873   -0.0078 C   0  0  0  0  0  0  0  0  0  0  0  0
   31.3996  -88.1533    0.0078 O   0  0  0  0  0  0  0  0  0  0  0  0
   34.9826  -86.1761    0.0156 N   0  0  0  0  0  0  0  0  0  0  0  0
   36.3325  -89.4739   -0.0058 O   0  0  0  0  0  0  0  0  0  0  0  0
   35.9557  -85.5163    0.0103 O   0  0  0  0  0  0  0  0  0  0  0  0
   39.9782  -87.2518   -0.0085 C   0  0  0  0  0  0  0  0  0  0  0  0
   41.5035  -88.1432   -0.0129 Cl  0  0  0  0  0  0  0  0  0  0  0  0
   38.8660  -88.8282    0.7995 H   0  0  0  0  0  0  0  0  0  0  0  0
   38.8636  -88.8176   -0.8337 H   0  0  0  0  0  0  0  0  0  0  0  0
   37.5399  -86.5162   -0.0050 H   0  0  0  0  0  0  0  0  0  0  0  0
   33.7859  -88.9313   -0.7835 H   0  0  0  0  0  0  0  0  0  0  0  0
   33.7789  -88.8931    0.8494 H   0  0  0  0  0  0  0  0  0  0  0  0
   32.6344  -86.7905    0.7942 H   0  0  0  0  0  0  0  0  0  0  0  0
   32.6392  -86.8316   -0.8386 H   0  0  0  0  0  0  0  0  0  0  0  0
   30.6128  -87.5364   -0.0100 H   0  0  0  0  0  0  0  0  0  0  0  0
   39.9269  -86.6730   -0.8224 H   0  0  0  0  0  0  0  0  0  0  0  0
   39.9269  -86.6809    0.8109 H   0  0  0  0  0  0  0  0  0  0  0  0
  1  2  1  0  0  0  0
  2  3  1  0  0  0  0
  3  4  1  0  0  0  0
  4  5  1  0  0  0  0
  6  5  1  0  0  0  0
  6  7  1  0  0  0  0
  4  8  1  0  0  0  0
  3  9  2  0  0  0  0
  8 10  2  0  0  0  0
  1 11  1  0  0  0  0
 11 12  1  0  0  0  0
  1 13  1  0  0  0  0
  1 14  1  0  0  0  0
  2 15  1  0  0  0  0
  5 16  1  0  0  0  0
  5 17  1  0  0  0  0
  6 18  1  0  0  0  0
  6 19  1  0  0  0  0
  7 20  1  0  0  0  0
 11 21  1  0  0  0  0
 11 22  1  0  0  0  0
M  END
>  <Substance ID> (535)
535

>  <Mouse_Female_Canc> (535)
ND

>  <SAL> (535)
ND

>  <Rat_Male_Canc> (535)
3

>  <TD50_Rat> (535)
0.229

>  <TD50_Mouse> (535)
ND

>  <Rat_Female_Canc> (535)
3

>  <Canc> (535)
3

>  <MolWeight> (535)
195.61

>  <Mouse_Male_Canc> (535)
ND

>  <Mouse_Male_NTP> (535)
ND

>  <ChemName> (535)
1-Nitroso-1-hydroxyethyl-3-chloroethylurea

>  <Rat_Male_NTP> (535)
ND

>  <Reference> (535)
CPDB

>  <Formula> (535)
C5H10ClN3O3

>  <SMILES> (535)
O=C(N(CCO)N=O)NCCCl

>  <Rat_Female_NTP> (535)
ND

>  <CAS> (535)
96806-34-7

>  <Mouse_Female_NTP> (535)
ND

>  <Synonyms> (535)
1-(2-Hydroxyethyl)-nitroso-3-chloroethylurea.

$$$$
536


 54 57  0  0  0  0  0  0  0  0999 V2000
    3.4185   -6.5053    0.0203 C   0  0  0  0  0  0  0  0  0  0  0  0
    4.3112   -7.3996    0.7158 C   0  0  0  0  0  0  0  0  0  0  0  0
    4.1266   -5.6156   -0.6819 C   0  0  0  0  0  0  0  0  0  0  0  0
    1.9232   -6.5403    0.0914 C   0  0  0  0  0  0  0  0  0  0  0  0
    3.9599   -8.4054    1.3500 O   0  0  0  0  0  0  0  0  0  0  0  0
    5.8207   -6.0053    1.8507 O   0  0  0  0  0  0  0  0  0  0  0  0
    5.5913   -6.0182   -0.5666 C   0  0  2  0  0  0  0  0  0  0  0  0
    5.6852   -6.8339    0.6985 C   0  0  1  0  0  0  0  0  0  0  0  0
    6.7501   -7.9957    0.5516 C   0  0  0  0  0  0  0  0  0  0  0  0
    8.0052   -7.8215   -0.3664 C   0  0  0  0  0  0  0  0  0  0  0  0
    8.5401   -6.6730   -0.7931 C   0  0  0  0  0  0  0  0  0  0  0  0
    6.7092   -4.8624   -0.7852 C   0  0  2  0  0  0  0  0  0  0  0  0
    8.1162   -5.3843   -0.2991 C   0  0  1  0  0  0  0  0  0  0  0  0
    7.6434   -2.5217   -0.3235 C   0  0  1  0  0  0  0  0  0  0  0  0
    6.5520   -3.5388    0.0844 C   0  0  2  0  0  0  0  0  0  0  0  0
    6.6402   -4.5100   -2.1648 O   0  0  0  0  0  0  0  0  0  0  0  0
    9.1153   -3.0184   -0.1757 C   0  0  2  0  0  0  0  0  0  0  0  0
    9.2781   -4.4086   -0.6313 C   0  0  2  0  0  0  0  0  0  0  0  0
    9.8666   -3.8065    0.8367 C   0  0  0  0  0  0  0  0  0  0  0  0
    9.4155   -2.8937    1.9983 C   0  0  0  0  0  0  0  0  0  0  0  0
   11.3814   -3.7203    0.5573 C   0  0  0  0  0  0  0  0  0  0  0  0
   10.0608   -2.0054   -0.5329 O   0  0  0  0  0  0  0  0  0  0  0  0
    7.4554   -1.3356    0.4625 O   0  0  0  0  0  0  0  0  0  0  0  0
    8.6666   -9.0773   -0.8416 C   0  0  0  0  0  0  0  0  0  0  0  0
    9.9003   -8.7367   -1.4768 O   0  0  0  0  0  0  0  0  0  0  0  0
    5.2370   -2.7605   -0.1550 C   0  0  0  0  0  0  0  0  0  0  0  0
    9.3719   -4.1295   -1.6889 H   0  0  0  0  0  0  0  0  0  0  0  0
    8.0515   -5.5153    0.7912 H   0  0  0  0  0  0  0  0  0  0  0  0
    5.6971   -6.8022   -1.3274 H   0  0  0  0  0  0  0  0  0  0  0  0
    3.7634   -4.8331   -1.1876 H   0  0  0  0  0  0  0  0  0  0  0  0
    1.5446   -5.8145   -0.4829 H   0  0  0  0  0  0  0  0  0  0  0  0
    1.6307   -6.4025    1.0378 H   0  0  0  0  0  0  0  0  0  0  0  0
    1.5942   -7.4272   -0.2329 H   0  0  0  0  0  0  0  0  0  0  0  0
    6.7378   -5.6073    1.8696 H   0  0  0  0  0  0  0  0  0  0  0  0
    7.0938   -8.1851    1.4714 H   0  0  0  0  0  0  0  0  0  0  0  0
    6.2552   -8.7944    0.2092 H   0  0  0  0  0  0  0  0  0  0  0  0
    9.2635   -6.7079   -1.4827 H   0  0  0  0  0  0  0  0  0  0  0  0
    7.5280   -2.3600   -1.3036 H   0  0  0  0  0  0  0  0  0  0  0  0
    6.5969   -3.8614    1.0298 H   0  0  0  0  0  0  0  0  0  0  0  0
    7.3120   -3.7957   -2.3608 H   0  0  0  0  0  0  0  0  0  0  0  0
   10.1462   -2.8329    2.6782 H   0  0  0  0  0  0  0  0  0  0  0  0
    8.5955   -3.2761    2.4242 H   0  0  0  0  0  0  0  0  0  0  0  0
    9.2123   -1.9803    1.6455 H   0  0  0  0  0  0  0  0  0  0  0  0
   11.8509   -3.3700    1.3678 H   0  0  0  0  0  0  0  0  0  0  0  0
   11.5442   -3.1045   -0.2137 H   0  0  0  0  0  0  0  0  0  0  0  0
   11.7325   -4.6302    0.3366 H   0  0  0  0  0  0  0  0  0  0  0  0
   10.9888   -2.3619   -0.4249 H   0  0  0  0  0  0  0  0  0  0  0  0
    6.5121   -1.0180    0.3672 H   0  0  0  0  0  0  0  0  0  0  0  0
    8.8447   -9.6785   -0.0626 H   0  0  0  0  0  0  0  0  0  0  0  0
    8.0705   -9.5446   -1.4944 H   0  0  0  0  0  0  0  0  0  0  0  0
   10.3511   -9.5693   -1.7985 H   0  0  0  0  0  0  0  0  0  0  0  0
    5.2194   -1.9478    0.4274 H   0  0  0  0  0  0  0  0  0  0  0  0
    4.4574   -3.3461    0.0671 H   0  0  0  0  0  0  0  0  0  0  0  0
    5.1829   -2.4837   -1.1144 H   0  0  0  0  0  0  0  0  0  0  0  0
  1  2  1  0  0  0  0
  7  3  1  0  0  0  0
  3  1  2  0  0  0  0
  2  8  1  0  0  0  0
  1  4  1  0  0  0  0
  2  5  2  0  0  0  0
  8  6  1  1  0  0  0
  7  8  1  0  0  0  0
  8  9  1  0  0  0  0
  9 10  1  0  0  0  0
 10 11  2  0  0  0  0
 11 13  1  0  0  0  0
 12  7  1  1  0  0  0
 12 13  1  0  0  0  0
 12 15  1  0  0  0  0
 13 18  1  0  0  0  0
 17 14  1  0  0  0  0
 14 15  1  0  0  0  0
 16 12  1  6  0  0  0
 18 17  1  0  0  0  0
 19 18  1  0  0  0  0
 17 19  1  0  0  0  0
 19 20  1  0  0  0  0
 19 21  1  0  0  0  0
 17 22  1  6  0  0  0
 14 23  1  1  0  0  0
 10 24  1  0  0  0  0
 24 25  1  0  0  0  0
 15 26  1  6  0  0  0
 18 27  1  6  0  0  0
 13 28  1  1  0  0  0
  7 29  1  6  0  0  0
  3 30  1  0  0  0  0
  4 31  1  0  0  0  0
  4 32  1  0  0  0  0
  4 33  1  0  0  0  0
  6 34  1  0  0  0  0
  9 35  1  0  0  0  0
  9 36  1  0  0  0  0
 11 37  1  0  0  0  0
 14 38  1  0  0  0  0
 15 39  1  0  0  0  0
 16 40  1  0  0  0  0
 20 41  1  0  0  0  0
 20 42  1  0  0  0  0
 20 43  1  0  0  0  0
 21 44  1  0  0  0  0
 21 45  1  0  0  0  0
 21 46  1  0  0  0  0
 22 47  1  0  0  0  0
 23 48  1  0  0  0  0
 24 49  1  0  0  0  0
 24 50  1  0  0  0  0
 25 51  1  0  0  0  0
 26 52  1  0  0  0  0
 26 53  1  0  0  0  0
 26 54  1  0  0  0  0
M  END
>  <Substance ID> (536)
536

>  <Mouse_Female_Canc> (536)
3

>  <SAL> (536)
ND

>  <Rat_Male_Canc> (536)
ND

>  <TD50_Rat> (536)
ND

>  <TD50_Mouse> (536)
2.21

>  <Rat_Female_Canc> (536)
ND

>  <Canc> (536)
3

>  <MolWeight> (536)
364.44

>  <Mouse_Male_Canc> (536)
1

>  <Mouse_Male_NTP> (536)
ND

>  <ChemName> (536)
Phorbol

>  <Rat_Male_NTP> (536)
ND

>  <Reference> (536)
CPDB

>  <Formula> (536)
C20H28O6

>  <SMILES> (536)
O=C1\C(=C/[C@@H]2[C@]1(O)C/C(=C\[C@H]3[C@H]4[C@@](O)([C@H](O)[C@@H](C)[C@]23O)C4(C)C)CO)C

>  <Rat_Female_NTP> (536)
ND

>  <CAS> (536)
17673-25-5

>  <Mouse_Female_NTP> (536)
ND

>  <Synonyms> (536)
1,1abeta,1balpha,4,4a,7abeta,7b,8,9,9a-decahydro-4aalpha,7balpha,9beta,9aalpha-tetrahydroxy-3-(hydroxymethyl)-1,1,6,8alpha-tetramethyl-5H-cyclopropa(3,4)benz[1,2-e]azulen-5-one; [1aR-(1aalpha,1bbeta,4abeta,7aalpha,7balpha,8alpha,9beta,9aalpha)]-1,1a,1b,4,4a,7a,7b,8,9,9a-decahydro-4a,7b,9,9a-tetrahydroxy-3-(hydroxymethyl)-1,1,6,8-tetramethyl-5H-cyclopropa(3,4)benz[1,2-e]azulen-5-one; 4beta,9alpha,12beta,13alpha,20-pentahydroxy-1,6-tigliadien-3-one.

$$$$
537
 

 16 16  0  0  0  0  0  0  0  0999 V2000
    1.3842  -14.4601    0.1930 C   0  0  0  0  0  0  0  0  0  0  0  0
    1.3076  -15.8791   -0.3959 C   0  0  0  0  0  0  0  0  0  0  0  0
    2.3982  -16.6566    0.1651 N   0  0  0  0  0  0  0  0  0  0  0  0
    3.7522  -16.1945   -0.1689 C   0  0  0  0  0  0  0  0  0  0  0  0
    3.8608  -14.6928   -0.0433 C   0  0  0  0  0  0  0  0  0  0  0  0
    2.7902  -13.9098    0.1239 C   0  0  0  0  0  0  0  0  0  0  0  0
    2.2443  -18.0065    0.0414 N   0  0  0  0  0  0  0  0  0  0  0  0
    3.1832  -18.7125    0.0863 O   0  0  0  0  0  0  0  0  0  0  0  0
    0.7741  -13.8599   -0.3242 H   0  0  0  0  0  0  0  0  0  0  0  0
    1.0926  -14.4885    1.1492 H   0  0  0  0  0  0  0  0  0  0  0  0
    0.4326  -16.2994   -0.1557 H   0  0  0  0  0  0  0  0  0  0  0  0
    1.3965  -15.8387   -1.3911 H   0  0  0  0  0  0  0  0  0  0  0  0
    4.4064  -16.6225    0.4547 H   0  0  0  0  0  0  0  0  0  0  0  0
    3.9649  -16.4596   -1.1094 H   0  0  0  0  0  0  0  0  0  0  0  0
    4.7657  -14.2694   -0.0867 H   0  0  0  0  0  0  0  0  0  0  0  0
    2.9247  -12.9223    0.2064 H   0  0  0  0  0  0  0  0  0  0  0  0
  1  2  1  0  0  0  0
  1  6  1  0  0  0  0
  2  3  1  0  0  0  0
  3  4  1  0  0  0  0
  4  5  1  0  0  0  0
  5  6  2  0  0  0  0
  3  7  1  0  0  0  0
  7  8  2  0  0  0  0
  1  9  1  0  0  0  0
  1 10  1  0  0  0  0
  2 11  1  0  0  0  0
  2 12  1  0  0  0  0
  4 13  1  0  0  0  0
  4 14  1  0  0  0  0
  5 15  1  0  0  0  0
  6 16  1  0  0  0  0
M  END
>  <Substance ID> (537)
537

>  <Mouse_Female_Canc> (537)
ND

>  <SAL> (537)
3

>  <Rat_Male_Canc> (537)
ND

>  <TD50_Rat> (537)
0.0601

>  <TD50_Mouse> (537)
ND

>  <Rat_Female_Canc> (537)
3

>  <Canc> (537)
3

>  <MolWeight> (537)
112.13

>  <Mouse_Male_Canc> (537)
ND

>  <Mouse_Male_NTP> (537)
ND

>  <ChemName> (537)
N-Nitroso-1,2,3,6-tetrahydropyridine

>  <Rat_Male_NTP> (537)
ND

>  <Reference> (537)
CPDB

>  <Formula> (537)
C5H8N2O

>  <SMILES> (537)
O=NN(CC=C1)CC1

>  <Rat_Female_NTP> (537)
ND

>  <CAS> (537)
55556-92-8

>  <Mouse_Female_NTP> (537)
ND

>  <Synonyms> (537)
1,2,3,6-tetrahydro-1-nitroso-pyridine.

$$$$
538


 17 18  0  0  0  0  0  0  0  0999 V2000
    6.0271  -25.6637    0.7040 C   0  0  0  0  0  0  0  0  0  0  0  0
    5.2384  -24.7763   -0.2398 C   0  0  1  0  0  0  0  0  0  0  0  0
    5.8047  -26.0595   -0.6458 O   0  0  0  0  0  0  0  0  0  0  0  0
    1.9877  -26.6702    0.2209 C   0  0  0  0  0  0  0  0  0  0  0  0
    3.2916  -26.4295    0.0975 C   0  0  0  0  0  0  0  0  0  0  0  0
    2.8955  -24.0511   -0.1649 C   0  0  0  0  0  0  0  0  0  0  0  0
    1.4614  -24.3169   -0.0258 C   0  0  0  0  0  0  0  0  0  0  0  0
    3.7681  -25.0549   -0.1033 C   0  0  0  0  0  0  0  0  0  0  0  0
    1.0292  -25.5636    0.1582 C   0  0  0  0  0  0  0  0  0  0  0  0
    6.9417  -25.3905    1.0019 H   0  0  0  0  0  0  0  0  0  0  0  0
    5.5619  -26.1410    1.4494 H   0  0  0  0  0  0  0  0  0  0  0  0
    5.2798  -23.8102   -0.4946 H   0  0  0  0  0  0  0  0  0  0  0  0
    1.6626  -27.6061    0.3564 H   0  0  0  0  0  0  0  0  0  0  0  0
    3.9460  -27.1843    0.1416 H   0  0  0  0  0  0  0  0  0  0  0  0
    3.2191  -23.1155   -0.3060 H   0  0  0  0  0  0  0  0  0  0  0  0
    0.8067  -23.5623   -0.0690 H   0  0  0  0  0  0  0  0  0  0  0  0
    0.0503  -25.7442    0.2536 H   0  0  0  0  0  0  0  0  0  0  0  0
  2  1  1  0  0  0  0
  3  2  1  0  0  0  0
  1  3  1  0  0  0  0
  4  5  2  0  0  0  0
  6  7  1  0  0  0  0
  4  9  1  0  0  0  0
  5  8  1  0  0  0  0
  8  6  2  0  0  0  0
  7  9  2  0  0  0  0
  8  2  1  0  0  0  0
  1 10  1  0  0  0  0
  1 11  1  0  0  0  0
  2 12  1  0  0  0  0
  4 13  1  0  0  0  0
  5 14  1  0  0  0  0
  6 15  1  0  0  0  0
  7 16  1  0  0  0  0
  9 17  1  0  0  0  0
M  END
>  <Substance ID> (538)
538

>  <Mouse_Female_Canc> (538)
3

>  <SAL> (538)
3

>  <Rat_Male_Canc> (538)
3

>  <TD50_Rat> (538)
55.4

>  <TD50_Mouse> (538)
118

>  <Rat_Female_Canc> (538)
3

>  <Canc> (538)
3

>  <MolWeight> (538)
120.15

>  <Mouse_Male_Canc> (538)
3

>  <Mouse_Male_NTP> (538)
ND

>  <ChemName> (538)
Styrene Oxide

>  <Rat_Male_NTP> (538)
ND

>  <Reference> (538)
CPDB

>  <Formula> (538)
C8H8O

>  <SMILES> (538)
C1C(C2=CC=CC=C2)O1

>  <Rat_Female_NTP> (538)
ND

>  <CAS> (538)
96-09-3

>  <Mouse_Female_NTP> (538)
ND

>  <Synonyms> (538)
1,2-Epoxyethylbenzene; 1-Phenyl-1,2-Epoxyethane; 2-phenyloxirane; alpha,beta-epoxystyrene; epoxyethylbenzene; epoxystyrene; phenethylene oxide; phenylethylene oxide; Phenyloxirane; Phenyloxirane, d8; Styrene-7,8-oxide; Styrene Epoxide; Styrene oxide-d8; styryl oxide.

$$$$
539


 23 22  0  0  0  0  0  0  0  0999 V2000
   10.0705  -32.1305    0.2490 C   0  0  0  0  0  0  0  0  0  0  0  0
    8.8364  -31.3877   -0.2988 C   0  0  1  0  0  0  0  0  0  0  0  0
    7.5553  -31.9397    0.4136 C   0  0  0  0  0  0  0  0  0  0  0  0
    6.2457  -31.3712   -0.0630 N   0  0  0  0  0  0  0  0  0  0  0  0
    5.0641  -32.1739    0.2630 C   0  0  0  0  0  0  0  0  0  0  0  0
    3.8344  -31.5779   -0.4422 C   0  0  0  0  0  0  0  0  0  0  0  0
    2.6782  -32.3494   -0.1108 O   0  0  0  0  0  0  0  0  0  0  0  0
    5.9940  -30.0216    0.1328 N   0  0  0  0  0  0  0  0  0  0  0  0
    6.8314  -29.2270    0.3208 O   0  0  0  0  0  0  0  0  0  0  0  0
    9.0157  -29.9984   -0.0629 O   0  0  0  0  0  0  0  0  0  0  0  0
   11.2519  -31.6492   -0.4020 O   0  0  0  0  0  0  0  0  0  0  0  0
   10.1449  -31.9704    1.2333 H   0  0  0  0  0  0  0  0  0  0  0  0
    9.9720  -33.1106    0.0767 H   0  0  0  0  0  0  0  0  0  0  0  0
    8.7264  -31.5324   -1.2821 H   0  0  0  0  0  0  0  0  0  0  0  0
    7.5291  -32.9295    0.2742 H   0  0  0  0  0  0  0  0  0  0  0  0
    7.6382  -31.7422    1.3904 H   0  0  0  0  0  0  0  0  0  0  0  0
    5.2035  -33.1144   -0.0467 H   0  0  0  0  0  0  0  0  0  0  0  0
    4.9179  -32.1665    1.2523 H   0  0  0  0  0  0  0  0  0  0  0  0
    3.7026  -30.6333   -0.1417 H   0  0  0  0  0  0  0  0  0  0  0  0
    3.9757  -31.5967   -1.4320 H   0  0  0  0  0  0  0  0  0  0  0  0
    1.8771  -31.9637   -0.5684 H   0  0  0  0  0  0  0  0  0  0  0  0
    8.2245  -29.4959   -0.4113 H   0  0  0  0  0  0  0  0  0  0  0  0
   12.0507  -32.1330   -0.0444 H   0  0  0  0  0  0  0  0  0  0  0  0
  1  2  1  0  0  0  0
  2  3  1  0  0  0  0
  3  4  1  0  0  0  0
  4  5  1  0  0  0  0
  6  5  1  0  0  0  0
  6  7  1  0  0  0  0
  4  8  1  0  0  0  0
  8  9  2  0  0  0  0
  2 10  1  0  0  0  0
  1 11  1  0  0  0  0
  1 12  1  0  0  0  0
  1 13  1  0  0  0  0
  2 14  1  0  0  0  0
  3 15  1  0  0  0  0
  3 16  1  0  0  0  0
  5 17  1  0  0  0  0
  5 18  1  0  0  0  0
  6 19  1  0  0  0  0
  6 20  1  0  0  0  0
  7 21  1  0  0  0  0
 10 22  1  0  0  0  0
 11 23  1  0  0  0  0
M  END
>  <Substance ID> (539)
539

>  <Mouse_Female_Canc> (539)
ND

>  <SAL> (539)
ND

>  <Rat_Male_Canc> (539)
ND

>  <TD50_Rat> (539)
5.98

>  <TD50_Mouse> (539)
ND

>  <Rat_Female_Canc> (539)
3

>  <Canc> (539)
3

>  <MolWeight> (539)
164.16

>  <Mouse_Male_Canc> (539)
ND

>  <Mouse_Male_NTP> (539)
ND

>  <ChemName> (539)
N-nitroso-2,3-dihydroxypropylethanolamine

>  <Rat_Male_NTP> (539)
ND

>  <Reference> (539)
CPDB

>  <Formula> (539)
C5H12N2O4

>  <SMILES> (539)
N(CC(CO)O)(CCO)N=O

>  <Rat_Female_NTP> (539)
ND

>  <CAS> (539)
89911-78-4

>  <Mouse_Female_NTP> (539)
ND

>  <Synonyms> (539)
-

$$$$
540


 99105  0  0  0  0  0  0  0  0999 V2000
    3.0251  -42.4805   -0.0642 C   0  0  0  0  0  0  0  0  0  0  0  0
    3.0093  -43.8093    0.0483 C   0  0  0  0  0  0  0  0  0  0  0  0
    4.2638  -44.5380    0.1854 C   0  0  0  0  0  0  0  0  0  0  0  0
    4.3122  -41.7751   -0.2146 C   0  0  0  0  0  0  0  0  0  0  0  0
    5.4542  -42.4699   -0.2100 C   0  0  0  0  0  0  0  0  0  0  0  0
    5.4279  -43.9004    0.0948 C   0  0  0  0  0  0  0  0  0  0  0  0
    6.7028  -44.6644    0.3797 C   0  0  0  0  0  0  0  0  0  0  0  0
    7.9935  -43.9096   -0.0203 C   0  0  0  0  0  0  0  0  0  0  0  0
    6.7708  -41.8107   -0.5853 C   0  0  2  0  0  0  0  0  0  0  0  0
    7.8946  -42.4106    0.2532 C   0  0  1  0  0  0  0  0  0  0  0  0
    8.0788  -39.5269   -0.7082 C   0  0  0  0  0  0  0  0  0  0  0  0
    6.6946  -40.2407   -0.4358 C   0  0  0  0  0  0  0  0  0  0  0  0
    9.1005  -40.2053    0.2423 C   0  0  1  0  0  0  0  0  0  0  0  0
    9.2564  -41.6707   -0.0740 C   0  0  2  0  0  0  0  0  0  0  0  0
   10.3380  -42.0564    0.9636 C   0  0  0  0  0  0  0  0  0  0  0  0
   11.3887  -40.8756    0.8642 C   0  0  0  0  0  0  0  0  0  0  0  0
   10.5532  -39.6234    0.3363 C   0  0  2  0  0  0  0  0  0  0  0  0
    1.7998  -44.5039    0.0547 O   0  0  0  0  0  0  0  0  0  0  0  0
    8.5842  -40.0507    1.6885 C   0  0  0  0  0  0  0  0  0  0  0  0
   11.2105  -39.1055   -0.8530 C   0  0  0  0  0  0  0  0  0  0  0  0
   10.5116  -38.5351    1.2706 O   0  0  0  0  0  0  0  0  0  0  0  0
   11.8110  -38.6639   -1.8003 C   0  0  0  0  0  0  0  0  0  0  0  0
    6.9984  -42.0557   -1.6164 H   0  0  0  0  0  0  0  0  0  0  0  0
    9.6092  -41.8004   -1.1158 H   0  0  0  0  0  0  0  0  0  0  0  0
    7.6625  -42.2564    1.3163 H   0  0  0  0  0  0  0  0  0  0  0  0
    2.1686  -41.9646   -0.0466 H   0  0  0  0  0  0  0  0  0  0  0  0
    4.2495  -45.5245    0.3486 H   0  0  0  0  0  0  0  0  0  0  0  0
    4.3302  -40.7808   -0.3197 H   0  0  0  0  0  0  0  0  0  0  0  0
    6.7418  -44.8556    1.3605 H   0  0  0  0  0  0  0  0  0  0  0  0
    6.6727  -45.5258   -0.1274 H   0  0  0  0  0  0  0  0  0  0  0  0
    8.7596  -44.2823    0.5034 H   0  0  0  0  0  0  0  0  0  0  0  0
    8.1579  -44.0483   -0.9969 H   0  0  0  0  0  0  0  0  0  0  0  0
    8.0118  -38.5497   -0.5066 H   0  0  0  0  0  0  0  0  0  0  0  0
    8.3536  -39.6530   -1.6614 H   0  0  0  0  0  0  0  0  0  0  0  0
    6.0219  -39.8909   -1.0879 H   0  0  0  0  0  0  0  0  0  0  0  0
    6.4016  -40.0231    0.4952 H   0  0  0  0  0  0  0  0  0  0  0  0
   10.7614  -42.9315    0.7291 H   0  0  0  0  0  0  0  0  0  0  0  0
    9.9476  -42.1101    1.8827 H   0  0  0  0  0  0  0  0  0  0  0  0
   11.7845  -40.6809    1.7616 H   0  0  0  0  0  0  0  0  0  0  0  0
   12.1183  -41.1077    0.2208 H   0  0  0  0  0  0  0  0  0  0  0  0
    1.9780  -45.4837    0.1459 H   0  0  0  0  0  0  0  0  0  0  0  0
    9.2281  -40.4815    2.3207 H   0  0  0  0  0  0  0  0  0  0  0  0
    7.6902  -40.4910    1.7726 H   0  0  0  0  0  0  0  0  0  0  0  0
    8.4992  -39.0794    1.9106 H   0  0  0  0  0  0  0  0  0  0  0  0
    9.9762  -37.7839    0.8845 H   0  0  0  0  0  0  0  0  0  0  0  0
   12.3092  -38.2975   -2.5862 H   0  0  0  0  0  0  0  0  0  0  0  0
   15.6883  -43.8009   -0.2618 C   0  0  0  0  0  0  0  0  0  0  0  0
   15.7651  -45.2876   -0.0641 C   0  0  0  0  0  0  0  0  0  0  0  0
   17.0662  -45.9511    0.1141 C   0  0  0  0  0  0  0  0  0  0  0  0
   17.0122  -43.2940   -0.8600 C   0  0  0  0  0  0  0  0  0  0  0  0
   18.2144  -43.7680   -0.0252 C   0  0  1  0  0  0  0  0  0  0  0  0
   18.2150  -45.2688    0.1257 C   0  0  0  0  0  0  0  0  0  0  0  0
   19.4972  -46.0144    0.4523 C   0  0  0  0  0  0  0  0  0  0  0  0
   20.7964  -45.2742    0.0332 C   0  0  0  0  0  0  0  0  0  0  0  0
   19.5676  -43.2053   -0.5921 C   0  0  2  0  0  0  0  0  0  0  0  0
   20.7095  -43.7599    0.2623 C   0  0  1  0  0  0  0  0  0  0  0  0
   20.8758  -40.9165   -0.7462 C   0  0  0  0  0  0  0  0  0  0  0  0
   19.5013  -41.6327   -0.4545 C   0  0  0  0  0  0  0  0  0  0  0  0
   21.9419  -41.5633    0.2107 C   0  0  1  0  0  0  0  0  0  0  0  0
   22.0895  -43.0212   -0.0862 C   0  0  2  0  0  0  0  0  0  0  0  0
   23.1951  -43.3775    0.9351 C   0  0  0  0  0  0  0  0  0  0  0  0
   24.1892  -42.1040    0.9465 C   0  0  0  0  0  0  0  0  0  0  0  0
   23.4016  -40.9623    0.1924 C   0  0  2  0  0  0  0  0  0  0  0  0
   14.7262  -45.9538    0.0042 O   0  0  0  0  0  0  0  0  0  0  0  0
   21.4836  -41.3616    1.6814 C   0  0  0  0  0  0  0  0  0  0  0  0
   24.0108  -40.6904   -1.1135 C   0  0  0  0  0  0  0  0  0  0  0  0
   23.1448  -39.7377    0.8977 O   0  0  0  0  0  0  0  0  0  0  0  0
   24.5936  -40.4355   -2.1395 C   0  0  0  0  0  0  0  0  0  0  0  0
   23.7264  -38.5583    0.4543 C   0  0  0  0  0  0  0  0  0  0  0  0
   22.9069  -37.6792    0.1851 O   0  0  0  0  0  0  0  0  0  0  0  0
   25.2201  -38.2686    0.2930 C   0  0  0  0  0  0  0  0  0  0  0  0
   18.1022  -43.3666    1.0075 H   0  0  0  0  0  0  0  0  0  0  0  0
   20.4798  -43.5684    1.3088 H   0  0  0  0  0  0  0  0  0  0  0  0
   19.7538  -43.4978   -1.6297 H   0  0  0  0  0  0  0  0  0  0  0  0
   22.4328  -43.1576   -1.1327 H   0  0  0  0  0  0  0  0  0  0  0  0
   14.9369  -43.5860   -0.8857 H   0  0  0  0  0  0  0  0  0  0  0  0
   15.5285  -43.3554    0.6191 H   0  0  0  0  0  0  0  0  0  0  0  0
   17.0916  -46.9440    0.2302 H   0  0  0  0  0  0  0  0  0  0  0  0
   17.1042  -43.6433   -1.7924 H   0  0  0  0  0  0  0  0  0  0  0  0
   17.0009  -42.2942   -0.8777 H   0  0  0  0  0  0  0  0  0  0  0  0
   19.5281  -46.1646    1.4405 H   0  0  0  0  0  0  0  0  0  0  0  0
   19.4743  -46.8962   -0.0187 H   0  0  0  0  0  0  0  0  0  0  0  0
   21.5589  -45.6363    0.5694 H   0  0  0  0  0  0  0  0  0  0  0  0
   20.9621  -45.4424   -0.9385 H   0  0  0  0  0  0  0  0  0  0  0  0
   20.7985  -39.9367   -0.5620 H   0  0  0  0  0  0  0  0  0  0  0  0
   21.1406  -41.0569   -1.7003 H   0  0  0  0  0  0  0  0  0  0  0  0
   18.8210  -41.2870   -1.1008 H   0  0  0  0  0  0  0  0  0  0  0  0
   19.2196  -41.4085    0.4785 H   0  0  0  0  0  0  0  0  0  0  0  0
   23.6844  -44.2013    0.6486 H   0  0  0  0  0  0  0  0  0  0  0  0
   22.8006  -43.5221    1.8425 H   0  0  0  0  0  0  0  0  0  0  0  0
   24.3949  -41.8275    1.8853 H   0  0  0  0  0  0  0  0  0  0  0  0
   25.0404  -42.3186    0.4676 H   0  0  0  0  0  0  0  0  0  0  0  0
   22.1555  -41.7699    2.2994 H   0  0  0  0  0  0  0  0  0  0  0  0
   20.5958  -41.8012    1.8177 H   0  0  0  0  0  0  0  0  0  0  0  0
   21.4042  -40.3838    1.8752 H   0  0  0  0  0  0  0  0  0  0  0  0
   25.0763  -40.2243   -2.9894 H   0  0  0  0  0  0  0  0  0  0  0  0
   25.3446  -37.3357   -0.0447 H   0  0  0  0  0  0  0  0  0  0  0  0
   25.6168  -38.9144   -0.3594 H   0  0  0  0  0  0  0  0  0  0  0  0
   25.6765  -38.3661    1.1774 H   0  0  0  0  0  0  0  0  0  0  0  0
  1  2  2  0  0  0  0
  1  4  1  0  0  0  0
  2  3  1  0  0  0  0
  3  6  2  0  0  0  0
  5  4  2  0  0  0  0
  5  6  1  0  0  0  0
  5  9  1  0  0  0  0
  6  7  1  0  0  0  0
  7  8  1  0  0  0  0
  8 10  1  0  0  0  0
  9 10  1  0  0  0  0
  9 12  1  0  0  0  0
 10 14  1  0  0  0  0
 13 11  1  0  0  0  0
 11 12  1  0  0  0  0
 13 14  1  0  0  0  0
 15 16  1  0  0  0  0
 16 17  1  0  0  0  0
 17 13  1  0  0  0  0
 14 15  1  0  0  0  0
  2 18  1  0  0  0  0
 13 19  1  1  0  0  0
 17 20  1  6  0  0  0
 17 21  1  1  0  0  0
 20 22  3  0  0  0  0
  9 23  1  6  0  0  0
 14 24  1  6  0  0  0
 10 25  1  1  0  0  0
  1 26  1  0  0  0  0
  3 27  1  0  0  0  0
  4 28  1  0  0  0  0
  7 29  1  0  0  0  0
  7 30  1  0  0  0  0
  8 31  1  0  0  0  0
  8 32  1  0  0  0  0
 11 33  1  0  0  0  0
 11 34  1  0  0  0  0
 12 35  1  0  0  0  0
 12 36  1  0  0  0  0
 15 37  1  0  0  0  0
 15 38  1  0  0  0  0
 16 39  1  0  0  0  0
 16 40  1  0  0  0  0
 18 41  1  0  0  0  0
 19 42  1  0  0  0  0
 19 43  1  0  0  0  0
 19 44  1  0  0  0  0
 21 45  1  0  0  0  0
 22 46  1  0  0  0  0
 47 48  1  0  0  0  0
 47 50  1  0  0  0  0
 48 49  1  0  0  0  0
 49 52  2  0  0  0  0
 51 50  1  0  0  0  0
 51 52  1  0  0  0  0
 51 55  1  0  0  0  0
 52 53  1  0  0  0  0
 53 54  1  0  0  0  0
 54 56  1  0  0  0  0
 55 56  1  0  0  0  0
 55 58  1  0  0  0  0
 56 60  1  0  0  0  0
 59 57  1  0  0  0  0
 57 58  1  0  0  0  0
 59 60  1  0  0  0  0
 61 62  1  0  0  0  0
 62 63  1  0  0  0  0
 63 59  1  0  0  0  0
 60 61  1  0  0  0  0
 48 64  2  0  0  0  0
 59 65  1  1  0  0  0
 63 66  1  6  0  0  0
 63 67  1  1  0  0  0
 66 68  3  0  0  0  0
 67 69  1  0  0  0  0
 69 70  2  0  0  0  0
 69 71  1  0  0  0  0
 51 72  1  1  0  0  0
 56 73  1  1  0  0  0
 55 74  1  6  0  0  0
 60 75  1  6  0  0  0
 47 76  1  0  0  0  0
 47 77  1  0  0  0  0
 49 78  1  0  0  0  0
 50 79  1  0  0  0  0
 50 80  1  0  0  0  0
 53 81  1  0  0  0  0
 53 82  1  0  0  0  0
 54 83  1  0  0  0  0
 54 84  1  0  0  0  0
 57 85  1  0  0  0  0
 57 86  1  0  0  0  0
 58 87  1  0  0  0  0
 58 88  1  0  0  0  0
 61 89  1  0  0  0  0
 61 90  1  0  0  0  0
 62 91  1  0  0  0  0
 62 92  1  0  0  0  0
 65 93  1  0  0  0  0
 65 94  1  0  0  0  0
 65 95  1  0  0  0  0
 68 96  1  0  0  0  0
 71 97  1  0  0  0  0
 71 98  1  0  0  0  0
 71 99  1  0  0  0  0
M  END
>  <Substance ID> (540)
540

>  <Mouse_Female_Canc> (540)
3

>  <SAL> (540)
ND

>  <Rat_Male_Canc> (540)
3

>  <TD50_Rat> (540)
1.94

>  <TD50_Mouse> (540)
1.34

>  <Rat_Female_Canc> (540)
3

>  <Canc> (540)
3

>  <MolWeight> (540)
340.46-296.40

>  <Mouse_Male_Canc> (540)
ND

>  <Mouse_Male_NTP> (540)
ND

>  <ChemName> (540)
Norlestrin

>  <Rat_Male_NTP> (540)
ND

>  <Reference> (540)
CPDB

>  <Formula> (540)
C22H28O3.C20H24O2 

>  <SMILES> (540)
O=C4\C=C2/[C@@H]([C@H]1CC[C@@]3([C@@](C#C)(OC(=O)C)CC[C@H]3[C@@H]1CC2)C)CC4.Oc1cc2c(cc1)[C@H]3CC[C@]4(C)[C@@](C#C)(O)CC[C@H]4[C@@H]3CC2

>  <Rat_Female_NTP> (540)
ND

>  <CAS> (540)
8015-12-1

>  <Mouse_Female_NTP> (540)
ND

>  <Synonyms> (540)
-

$$$$
541


 24 23  0  0  0  0  0  0  0  0999 V2000
   13.4266  -55.6089   -0.0816 C   0  0  0  0  0  0  0  0  0  0  0  0
   12.1908  -54.7795    0.3222 C   0  0  2  0  0  0  0  0  0  0  0  0
   10.9231  -55.4046   -0.3551 C   0  0  0  0  0  0  0  0  0  0  0  0
    9.5997  -54.7689   -0.0182 N   0  0  0  0  0  0  0  0  0  0  0  0
    8.4242  -55.5979   -0.3371 C   0  0  0  0  0  0  0  0  0  0  0  0
    7.1721  -54.9676    0.2072 C   0  0  0  0  0  0  0  0  0  0  0  0
    5.8413  -55.6142   -0.0459 C   0  0  0  0  0  0  0  0  0  0  0  0
    7.2323  -53.9209    0.8608 O   0  0  0  0  0  0  0  0  0  0  0  0
    9.3898  -53.4456   -0.3815 N   0  0  0  0  0  0  0  0  0  0  0  0
   10.2543  -52.6866   -0.5993 O   0  0  0  0  0  0  0  0  0  0  0  0
   14.5996  -55.0562    0.5268 O   0  0  0  0  0  0  0  0  0  0  0  0
   12.4113  -53.4412   -0.0999 O   0  0  0  0  0  0  0  0  0  0  0  0
   13.3073  -56.5534    0.2245 H   0  0  0  0  0  0  0  0  0  0  0  0
   13.5283  -55.5907   -1.0762 H   0  0  0  0  0  0  0  0  0  0  0  0
   12.0432  -54.7849    1.3113 H   0  0  0  0  0  0  0  0  0  0  0  0
   11.0464  -55.3432   -1.3456 H   0  0  0  0  0  0  0  0  0  0  0  0
   10.8764  -56.3659   -0.0835 H   0  0  0  0  0  0  0  0  0  0  0  0
    8.3433  -55.6860   -1.3299 H   0  0  0  0  0  0  0  0  0  0  0  0
    8.5403  -56.5038    0.0702 H   0  0  0  0  0  0  0  0  0  0  0  0
    5.1192  -55.0705    0.3818 H   0  0  0  0  0  0  0  0  0  0  0  0
    5.8385  -56.5357    0.3427 H   0  0  0  0  0  0  0  0  0  0  0  0
    5.6782  -55.6679   -1.0311 H   0  0  0  0  0  0  0  0  0  0  0  0
   15.3986  -55.5963    0.2629 H   0  0  0  0  0  0  0  0  0  0  0  0
   11.6233  -52.8783    0.1496 H   0  0  0  0  0  0  0  0  0  0  0  0
  1  2  1  0  0  0  0
  2  3  1  0  0  0  0
  3  4  1  0  0  0  0
  4  5  1  0  0  0  0
  6  5  1  0  0  0  0
  6  7  1  0  0  0  0
  6  8  2  0  0  0  0
  4  9  1  0  0  0  0
  9 10  2  0  0  0  0
  1 11  1  0  0  0  0
  2 12  1  0  0  0  0
  1 13  1  0  0  0  0
  1 14  1  0  0  0  0
  2 15  1  0  0  0  0
  3 16  1  0  0  0  0
  3 17  1  0  0  0  0
  5 18  1  0  0  0  0
  5 19  1  0  0  0  0
  7 20  1  0  0  0  0
  7 21  1  0  0  0  0
  7 22  1  0  0  0  0
 11 23  1  0  0  0  0
 12 24  1  0  0  0  0
M  END
>  <Substance ID> (541)
541

>  <Mouse_Female_Canc> (541)
ND

>  <SAL> (541)
ND

>  <Rat_Male_Canc> (541)
ND

>  <TD50_Rat> (541)
0.0352

>  <TD50_Mouse> (541)
ND

>  <Rat_Female_Canc> (541)
3

>  <Canc> (541)
3

>  <MolWeight> (541)
176.17

>  <Mouse_Male_Canc> (541)
ND

>  <Mouse_Male_NTP> (541)
ND

>  <ChemName> (541)
N-Nitroso-2,3-dihydroxypropyl-2-oxopropylamine

>  <Rat_Male_NTP> (541)
ND

>  <Reference> (541)
CPDB

>  <Formula> (541)
C6H12N2O4

>  <SMILES> (541)
N(CC(CO)O)(CC(C)=O)N=O

>  <Rat_Female_NTP> (541)
ND

>  <CAS> (541)
92177-50-9

>  <Mouse_Female_NTP> (541)
ND

>  <Synonyms> (541)
-

$$$$
542


 46 48  0  0  0  0  0  0  0  0999 V2000
    2.4729  -45.3212   -0.3584 C   0  0  0  0  0  0  0  0  0  0  0  0
    2.3265  -46.6206   -0.1092 C   0  0  0  0  0  0  0  0  0  0  0  0
    3.4557  -47.3977    0.4005 C   0  0  0  0  0  0  0  0  0  0  0  0
    4.6260  -46.8020    0.6234 C   0  0  0  0  0  0  0  0  0  0  0  0
    4.7842  -45.3708    0.3553 C   0  0  0  0  0  0  0  0  0  0  0  0
    3.7603  -44.6606   -0.1175 C   0  0  0  0  0  0  0  0  0  0  0  0
    3.8874  -43.1849   -0.4497 C   0  0  0  0  0  0  0  0  0  0  0  0
    5.0981  -42.4241    0.1758 C   0  0  2  0  0  0  0  0  0  0  0  0
    4.9716  -40.9884   -0.3211 C   0  0  0  0  0  0  0  0  0  0  0  0
    6.4181  -43.0478   -0.1301 N   0  0  0  0  0  0  0  0  0  0  0  0
    7.6597  -42.4418    0.2697 C   0  0  0  0  0  0  0  0  0  0  0  0
    8.9302  -43.1359    0.0335 C   0  0  0  0  0  0  0  0  0  0  0  0
    7.6637  -41.3319    0.8076 O   0  0  0  0  0  0  0  0  0  0  0  0
    8.9333  -44.4432   -0.2188 C   0  0  0  0  0  0  0  0  0  0  0  0
   10.2027  -45.1428   -0.4197 C   0  0  0  0  0  0  0  0  0  0  0  0
   10.1997  -42.3921    0.0679 C   0  0  0  0  0  0  0  0  0  0  0  0
   11.3517  -43.0381   -0.1329 C   0  0  0  0  0  0  0  0  0  0  0  0
   11.3489  -44.4690   -0.3740 C   0  0  0  0  0  0  0  0  0  0  0  0
   12.6496  -45.1679   -0.5936 C   0  0  0  0  0  0  0  0  0  0  0  0
   13.7337  -44.4117    0.1843 C   0  0  2  0  0  0  0  0  0  0  0  0
   13.8649  -43.0223   -0.1901 O   0  0  0  0  0  0  0  0  0  0  0  0
   12.6410  -42.3222   -0.1862 C   0  0  0  0  0  0  0  0  0  0  0  0
   15.0923  -45.1096   -0.0004 C   0  0  0  0  0  0  0  0  0  0  0  0
   12.6590  -41.0934   -0.2936 O   0  0  0  0  0  0  0  0  0  0  0  0
   10.1898  -41.0171    0.2814 O   0  0  0  0  0  0  0  0  0  0  0  0
   10.2156  -46.8447   -0.7052 Cl  0  0  0  0  0  0  0  0  0  0  0  0
    6.0763  -40.2283   -0.6846 O   0  0  0  0  0  0  0  0  0  0  0  0
    3.8443  -40.4916   -0.4265 O   0  0  0  0  0  0  0  0  0  0  0  0
    1.7011  -44.7926   -0.7117 H   0  0  0  0  0  0  0  0  0  0  0  0
    1.4453  -47.0650   -0.2704 H   0  0  0  0  0  0  0  0  0  0  0  0
    3.3493  -48.3754    0.5814 H   0  0  0  0  0  0  0  0  0  0  0  0
    5.3975  -47.3326    0.9742 H   0  0  0  0  0  0  0  0  0  0  0  0
    5.6628  -44.9253    0.5274 H   0  0  0  0  0  0  0  0  0  0  0  0
    3.9604  -43.1039   -1.4438 H   0  0  0  0  0  0  0  0  0  0  0  0
    3.0521  -42.7318   -0.1383 H   0  0  0  0  0  0  0  0  0  0  0  0
    5.0700  -42.4629    1.1747 H   0  0  0  0  0  0  0  0  0  0  0  0
    6.4405  -43.9143   -0.6287 H   0  0  0  0  0  0  0  0  0  0  0  0
    8.0703  -44.9457   -0.2710 H   0  0  0  0  0  0  0  0  0  0  0  0
   12.5888  -46.1093   -0.2619 H   0  0  0  0  0  0  0  0  0  0  0  0
   12.8722  -45.1712   -1.5685 H   0  0  0  0  0  0  0  0  0  0  0  0
   13.4453  -44.4278    1.1417 H   0  0  0  0  0  0  0  0  0  0  0  0
   15.7948  -44.6125    0.5088 H   0  0  0  0  0  0  0  0  0  0  0  0
   15.3315  -45.1228   -0.9713 H   0  0  0  0  0  0  0  0  0  0  0  0
   15.0348  -46.0477    0.3412 H   0  0  0  0  0  0  0  0  0  0  0  0
    9.2483  -40.7063    0.4119 H   0  0  0  0  0  0  0  0  0  0  0  0
    5.7751  -39.3215   -0.9794 H   0  0  0  0  0  0  0  0  0  0  0  0
  1  2  2  0  0  0  0
  2  3  1  0  0  0  0
  3  4  2  0  0  0  0
  4  5  1  0  0  0  0
  5  6  2  0  0  0  0
  6  1  1  0  0  0  0
  6  7  1  0  0  0  0
  7  8  1  0  0  0  0
  8  9  1  6  0  0  0
  8 10  1  1  0  0  0
 10 11  1  0  0  0  0
 11 12  1  0  0  0  0
 11 13  2  0  0  0  0
 12 14  2  0  0  0  0
 14 15  1  0  0  0  0
 15 18  2  0  0  0  0
 17 16  2  0  0  0  0
 16 12  1  0  0  0  0
 17 18  1  0  0  0  0
 17 22  1  0  0  0  0
 18 19  1  0  0  0  0
 19 20  1  0  0  0  0
 20 21  1  0  0  0  0
 21 22  1  0  0  0  0
 20 23  1  6  0  0  0
 22 24  2  0  0  0  0
 16 25  1  0  0  0  0
 15 26  1  0  0  0  0
  9 27  1  0  0  0  0
  9 28  2  0  0  0  0
  1 29  1  0  0  0  0
  2 30  1  0  0  0  0
  3 31  1  0  0  0  0
  4 32  1  0  0  0  0
  5 33  1  0  0  0  0
  7 34  1  0  0  0  0
  7 35  1  0  0  0  0
  8 36  1  0  0  0  0
 10 37  1  0  0  0  0
 14 38  1  0  0  0  0
 19 39  1  0  0  0  0
 19 40  1  0  0  0  0
 20 41  1  0  0  0  0
 23 42  1  0  0  0  0
 23 43  1  0  0  0  0
 23 44  1  0  0  0  0
 25 45  1  0  0  0  0
 27 46  1  0  0  0  0
M  END
>  <Substance ID> (542)
542

>  <Mouse_Female_Canc> (542)
3

>  <SAL> (542)
1

>  <Rat_Male_Canc> (542)
3

>  <TD50_Rat> (542)
0.103

>  <TD50_Mouse> (542)
6.41

>  <Rat_Female_Canc> (542)
3

>  <Canc> (542)
3

>  <MolWeight> (542)
403.82

>  <Mouse_Male_Canc> (542)
3

>  <Mouse_Male_NTP> (542)
ND

>  <ChemName> (542)
Ochratoxin A

>  <Rat_Male_NTP> (542)
CE

>  <Reference> (542)
NTP358 & CPDB

>  <Formula> (542)
C20H18ClNO6

>  <SMILES> (542)
O=C(O)[C@@H](NC(=O)c1c(O)c2c(c(Cl)c1)C[C@H](OC2=O)C)Cc3ccccc3

>  <Rat_Female_NTP> (542)
CE

>  <CAS> (542)
303-47-9

>  <Mouse_Female_NTP> (542)
ND

>  <Synonyms> (542)
N-(((3R)-5-chloro-8-hydroxy-3-methyl-1-oxo-7-isochromanyl)carbonyl)-3-phenyl-L-alanine; (-)-N-((5-chloro-8-hydroxy-3-methyl-1-oxo-7-isochromanyl)carbonyl)-3-phenylalanine.

$$$$
543
 

 31 31  0  0  0  0  0  0  0  0999 V2000
    2.0031  -75.4193   -0.0664 C   0  0  0  0  0  0  0  0  0  0  0  0
    2.1436  -76.7338    0.0575 C   0  0  0  0  0  0  0  0  0  0  0  0
    4.5741  -76.5501    0.1483 C   0  0  0  0  0  0  0  0  0  0  0  0
    4.4140  -75.0530   -0.0234 C   0  0  0  0  0  0  0  0  0  0  0  0
    3.4711  -77.3156    0.1832 C   0  0  0  0  0  0  0  0  0  0  0  0
    3.1833  -74.5552   -0.1029 C   0  0  0  0  0  0  0  0  0  0  0  0
    5.4987  -74.0745   -0.0961 O   0  0  0  0  0  0  0  0  0  0  0  0
    6.8830  -74.4392   -0.2066 C   0  0  0  0  0  0  0  0  0  0  0  0
    7.8886  -73.4239   -0.1538 N   0  0  0  0  0  0  0  0  0  0  0  0
    9.3005  -73.8068   -0.2835 C   0  0  0  0  0  0  0  0  0  0  0  0
    7.5534  -72.1148    0.0274 N   0  0  0  0  0  0  0  0  0  0  0  0
    7.2744  -75.5905   -0.3766 O   0  0  0  0  0  0  0  0  0  0  0  0
    8.4000  -71.2978    0.0786 O   0  0  0  0  0  0  0  0  0  0  0  0
    5.8451  -77.1237    0.3335 O   0  0  0  0  0  0  0  0  0  0  0  0
    5.9413  -78.5610    0.4509 C   0  0  0  0  0  0  0  0  0  0  0  0
    7.3537  -78.8828    0.9757 C   0  0  0  0  0  0  0  0  0  0  0  0
    5.8117  -79.2410   -0.9459 C   0  0  0  0  0  0  0  0  0  0  0  0
    1.0892  -75.0191   -0.1349 H   0  0  0  0  0  0  0  0  0  0  0  0
    1.3365  -77.3242    0.0645 H   0  0  0  0  0  0  0  0  0  0  0  0
    3.5641  -78.3046    0.2977 H   0  0  0  0  0  0  0  0  0  0  0  0
    3.0616  -73.5664   -0.1897 H   0  0  0  0  0  0  0  0  0  0  0  0
    9.8745  -72.9899   -0.2266 H   0  0  0  0  0  0  0  0  0  0  0  0
    9.4452  -74.2545   -1.1659 H   0  0  0  0  0  0  0  0  0  0  0  0
    9.5445  -74.4370    0.4536 H   0  0  0  0  0  0  0  0  0  0  0  0
    5.2152  -78.8918    1.0537 H   0  0  0  0  0  0  0  0  0  0  0  0
    7.4573  -79.8729    1.0699 H   0  0  0  0  0  0  0  0  0  0  0  0
    7.4860  -78.4480    1.8665 H   0  0  0  0  0  0  0  0  0  0  0  0
    8.0360  -78.5366    0.3317 H   0  0  0  0  0  0  0  0  0  0  0  0
    5.8809  -80.2331   -0.8419 H   0  0  0  0  0  0  0  0  0  0  0  0
    6.5447  -78.9171   -1.5442 H   0  0  0  0  0  0  0  0  0  0  0  0
    4.9263  -79.0095   -1.3490 H   0  0  0  0  0  0  0  0  0  0  0  0
  1  2  2  0  0  0  0
  3  4  1  0  0  0  0
  1  6  1  0  0  0  0
  2  5  1  0  0  0  0
  5  3  2  0  0  0  0
  4  6  2  0  0  0  0
  4  7  1  0  0  0  0
  7  8  1  0  0  0  0
  8  9  1  0  0  0  0
  9 10  1  0  0  0  0
  9 11  1  0  0  0  0
  8 12  2  0  0  0  0
 11 13  2  0  0  0  0
  3 14  1  0  0  0  0
 14 15  1  0  0  0  0
 15 16  1  0  0  0  0
 15 17  1  0  0  0  0
  1 18  1  0  0  0  0
  2 19  1  0  0  0  0
  5 20  1  0  0  0  0
  6 21  1  0  0  0  0
 10 22  1  0  0  0  0
 10 23  1  0  0  0  0
 10 24  1  0  0  0  0
 15 25  1  0  0  0  0
 16 26  1  0  0  0  0
 16 27  1  0  0  0  0
 16 28  1  0  0  0  0
 17 29  1  0  0  0  0
 17 30  1  0  0  0  0
 17 31  1  0  0  0  0
M  END
>  <Substance ID> (543)
543

>  <Mouse_Female_Canc> (543)
ND

>  <SAL> (543)
3

>  <Rat_Male_Canc> (543)
3

>  <TD50_Rat> (543)
0.364

>  <TD50_Mouse> (543)
ND

>  <Rat_Female_Canc> (543)
ND

>  <Canc> (543)
3

>  <MolWeight> (543)
238.24

>  <Mouse_Male_Canc> (543)
ND

>  <Mouse_Male_NTP> (543)
ND

>  <ChemName> (543)
Nitroso-baygon

>  <Rat_Male_NTP> (543)
ND

>  <Reference> (543)
CPDB

>  <Formula> (543)
C11H14N2O4

>  <SMILES> (543)
CC(C)OC1=CC=CC=C1OC(=O)N(C)N=O

>  <Rat_Female_NTP> (543)
ND

>  <CAS> (543)
38777-13-8

>  <Mouse_Female_NTP> (543)
ND

>  <Synonyms> (543)
-

$$$$
544


 22 22  0  0  0  0  0  0  0  0999 V2000
   -0.0165    1.3679    0.0096 C   0  0  0  0  0  0  0  0  0  1  0  0
    0.0021   -0.0041    0.0020 N   0  0  0  0  0  0  0  0  0  2  0  0
    1.1805    2.0849    0.0020 C   0  0  0  0  0  0  0  0  0  3  0  0
   -1.2326    2.0520    0.0190 C   0  0  0  0  0  0  0  0  0  4  0  0
   -1.1062   -0.6642    0.0091 N   0  0  0  0  0  0  0  0  0  5  0  0
    1.1549    3.4643    0.0097 C   0  0  0  0  0  0  0  0  0  6  0  0
   -1.2445    3.4317    0.0266 C   0  0  0  0  0  0  0  0  0  7  0  0
   -1.0872   -2.0650    0.0013 N   0  0  3  0  0  0  0  0  0  8  0  0
   -0.0541    4.1367    0.0253 C   0  0  0  0  0  0  0  0  0  9  0  0
    0.1913   -2.7802   -0.0147 C   0  0  0  0  0  0  0  0  0 10  0  0
   -2.3458   -2.8147    0.0093 C   0  0  0  0  0  0  0  0  0 11  0  0
    2.1250    1.5612   -0.0095 H   0  0  0  0  0  0  0  0  0 12  0  0
   -2.1625    1.5028    0.0201 H   0  0  0  0  0  0  0  0  0 13  0  0
    2.0807    4.0205    0.0038 H   0  0  0  0  0  0  0  0  0 14  0  0
   -2.1850    3.9624    0.0340 H   0  0  0  0  0  0  0  0  0 15  0  0
   -0.0687    5.2165    0.0320 H   0  0  0  0  0  0  0  0  0 16  0  0
    1.0101   -2.0607   -0.0187 H   0  0  0  0  0  0  0  0  0 17  0  0
    0.2660   -3.4108    0.8712 H   0  0  0  0  0  0  0  0  0 18  0  0
    0.2490   -3.4012   -0.9086 H   0  0  0  0  0  0  0  0  0 19  0  0
   -3.1838   -2.1178    0.0211 H   0  0  0  0  0  0  0  0  0 20  0  0
   -2.4035   -3.4373   -0.8835 H   0  0  0  0  0  0  0  0  0 21  0  0
   -2.3865   -3.4469    0.8964 H   0  0  0  0  0  0  0  0  0 22  0  0
  1  2  1  0  0  0  0
  1  3  2  0  0  0  0
  1  4  1  0  0  0  0
  2  5  2  0  0  0  0
  3  6  1  0  0  0  0
  3 12  1  0  0  0  0
  4  7  2  0  0  0  0
  4 13  1  0  0  0  0
  5  8  1  0  0  0  0
  6  9  2  0  0  0  0
  6 14  1  0  0  0  0
  7  9  1  0  0  0  0
  7 15  1  0  0  0  0
  8 10  1  0  0  0  0
  8 11  1  0  0  0  0
  9 16  1  0  0  0  0
 10 17  1  0  0  0  0
 10 18  1  0  0  0  0
 10 19  1  0  0  0  0
 11 20  1  0  0  0  0
 11 21  1  0  0  0  0
 11 22  1  0  0  0  0
M  END
>  <Substance ID> (544)
544

>  <Mouse_Female_Canc> (544)
ND

>  <SAL> (544)
3

>  <Rat_Male_Canc> (544)
3

>  <TD50_Rat> (544)
2.31

>  <TD50_Mouse> (544)
ND

>  <Rat_Female_Canc> (544)
3

>  <Canc> (544)
3

>  <MolWeight> (544)
149.20

>  <Mouse_Male_Canc> (544)
ND

>  <Mouse_Male_NTP> (544)
ND

>  <ChemName> (544)
1-phenyl-3,3-dimethyltriazene

>  <Rat_Male_NTP> (544)
ND

>  <Reference> (544)
CPDB

>  <Formula> (544)
C8H11N3

>  <SMILES> (544)
CN(C)/N=N/C1=CC=CC=C1

>  <Rat_Female_NTP> (544)
ND

>  <CAS> (544)
7227-91-0

>  <Mouse_Female_NTP> (544)
ND

>  <Synonyms> (544)
3,3-dimethyl-1-phenyl-1-Triazene; 3,3-dimethyl-1-phenyltriazene; DMPT; N,N-Dimethyltriazenobenzene; PDMT; PDT.

$$$$
545
 

 12 11  0  0  0  0  0  0  0  0999 V2000
    4.1696  -88.6578   -0.0032 N   0  0  0  0  0  0  0  0  0  0  0  0
    2.9800  -87.7933   -0.0027 C   0  0  0  0  0  0  0  0  0  0  0  0
    5.4817  -88.0619    0.0023 C   0  0  0  0  0  0  0  0  0  0  0  0
    6.6564  -88.8820    0.0016 N   0  0  0  0  0  0  0  0  0  0  0  0
    4.0161  -90.0199   -0.0053 N   0  0  0  0  0  0  0  0  0  0  0  0
    4.9502  -90.7338   -0.0025 O   0  0  0  0  0  0  0  0  0  0  0  0
    5.5967  -86.8305    0.0076 O   0  0  0  0  0  0  0  0  0  0  0  0
    2.1559  -88.3596   -0.0070 H   0  0  0  0  0  0  0  0  0  0  0  0
    2.9890  -87.2126   -0.8168 H   0  0  0  0  0  0  0  0  0  0  0  0
    2.9850  -87.2190    0.8159 H   0  0  0  0  0  0  0  0  0  0  0  0
    7.5621  -88.4582    0.0054 H   0  0  0  0  0  0  0  0  0  0  0  0
    6.5707  -89.8783   -0.0028 H   0  0  0  0  0  0  0  0  0  0  0  0
  1  2  1  0  0  0  0
  1  3  1  0  0  0  0
  3  4  1  0  0  0  0
  1  5  1  0  0  0  0
  5  6  2  0  0  0  0
  3  7  2  0  0  0  0
  2  8  1  0  0  0  0
  2  9  1  0  0  0  0
  2 10  1  0  0  0  0
  4 11  1  0  0  0  0
  4 12  1  0  0  0  0
M  END
>  <Substance ID> (545)
545

>  <Mouse_Female_Canc> (545)
ND

>  <SAL> (545)
3

>  <Rat_Male_Canc> (545)
3

>  <TD50_Rat> (545)
0.0927

>  <TD50_Mouse> (545)
1.23

>  <Rat_Female_Canc> (545)
ND

>  <Canc> (545)
3

>  <MolWeight> (545)
103.08

>  <Mouse_Male_Canc> (545)
3

>  <Mouse_Male_NTP> (545)
ND

>  <ChemName> (545)
N-Nitroso-N-Methylurea

>  <Rat_Male_NTP> (545)
ND

>  <Reference> (545)
CPDB

>  <Formula> (545)
C2H5N3O2

>  <SMILES> (545)
CN(C(=O)N)N=O

>  <Rat_Female_NTP> (545)
ND

>  <CAS> (545)
684-93-5

>  <Mouse_Female_NTP> (545)
ND

>  <Synonyms> (545)
1-Methyl-1-Nitrosourea; 1-nitroso-1-methylurea; methylnitrosourea; MNU; Nitrosomethylurea; n-methyl-n-nitroso-carbamide; N-methyl-N-nitroso-Urea; NMH; NMM; NMU; N-Nitrosomethylurea - Carc.; N-nitroso-N-methylcarbamide; ski 24464; sri 859.

$$$$
546


 31 32  0  0  0  0  0  0  0  0999 V2000
   39.3763   -3.0984   -0.0604 N   0  0  0  0  0  0  0  0  0  0  0  0
   40.4038   -4.0681   -0.4574 C   0  0  0  0  0  0  0  0  0  0  0  0
   41.7529   -3.6618    0.1631 C   0  0  0  0  0  0  0  0  0  0  0  0
   42.0451   -2.2891   -0.1512 O   0  0  0  0  0  0  0  0  0  0  0  0
   41.0903   -1.4371    0.5064 C   0  0  0  0  0  0  0  0  0  0  0  0
   39.6837   -1.6646   -0.0797 C   0  0  0  0  0  0  0  0  0  0  0  0
   32.4173   -3.4797    0.2783 O   0  0  0  0  0  0  0  0  0  0  0  0
   33.3793   -4.5402    0.1398 C   0  0  0  0  0  0  0  0  0  0  0  0
   34.7676   -4.0403    0.5974 C   0  0  0  0  0  0  0  0  0  0  0  0
   35.1693   -2.9026   -0.2472 N   0  0  0  0  0  0  0  0  0  0  0  0
   34.1746   -1.8265   -0.1023 C   0  0  0  0  0  0  0  0  0  0  0  0
   32.7884   -2.3539   -0.5374 C   0  0  0  0  0  0  0  0  0  0  0  0
   36.7403   -2.2990    0.2184 S   0  0  0  0  0  0  0  0  0  0  0  0
   38.0202   -3.5144   -0.0330 C   0  0  0  0  0  0  0  0  0  0  0  0
   37.6791   -5.0260   -0.2349 S   0  0  0  0  0  0  0  0  0  0  0  0
   40.1473   -4.9784   -0.1324 H   0  0  0  0  0  0  0  0  0  0  0  0
   40.4845   -4.0799   -1.4541 H   0  0  0  0  0  0  0  0  0  0  0  0
   41.7071   -3.7716    1.1560 H   0  0  0  0  0  0  0  0  0  0  0  0
   42.4759   -4.2467   -0.2046 H   0  0  0  0  0  0  0  0  0  0  0  0
   41.0787   -1.6467    1.4841 H   0  0  0  0  0  0  0  0  0  0  0  0
   41.3532   -0.4815    0.3730 H   0  0  0  0  0  0  0  0  0  0  0  0
   39.6564   -1.3300   -1.0217 H   0  0  0  0  0  0  0  0  0  0  0  0
   39.0093   -1.1712    0.4695 H   0  0  0  0  0  0  0  0  0  0  0  0
   33.1021   -5.3172    0.7050 H   0  0  0  0  0  0  0  0  0  0  0  0
   33.4266   -4.8240   -0.8179 H   0  0  0  0  0  0  0  0  0  0  0  0
   34.7206   -3.7485    1.5528 H   0  0  0  0  0  0  0  0  0  0  0  0
   35.4364   -4.7781    0.5063 H   0  0  0  0  0  0  0  0  0  0  0  0
   34.1361   -1.5333    0.8529 H   0  0  0  0  0  0  0  0  0  0  0  0
   34.4337   -1.0518   -0.6791 H   0  0  0  0  0  0  0  0  0  0  0  0
   32.8268   -2.6369   -1.4958 H   0  0  0  0  0  0  0  0  0  0  0  0
   32.1087   -1.6283   -0.4306 H   0  0  0  0  0  0  0  0  0  0  0  0
  1  2  1  0  0  0  0
  1  6  1  0  0  0  0
  2  3  1  0  0  0  0
  3  4  1  0  0  0  0
  4  5  1  0  0  0  0
  5  6  1  0  0  0  0
  7  8  1  0  0  0  0
  7 12  1  0  0  0  0
  8  9  1  0  0  0  0
  9 10  1  0  0  0  0
 10 11  1  0  0  0  0
 11 12  1  0  0  0  0
 10 13  1  0  0  0  0
 13 14  1  0  0  0  0
 14  1  1  0  0  0  0
 14 15  2  0  0  0  0
  2 16  1  0  0  0  0
  2 17  1  0  0  0  0
  3 18  1  0  0  0  0
  3 19  1  0  0  0  0
  5 20  1  0  0  0  0
  5 21  1  0  0  0  0
  6 22  1  0  0  0  0
  6 23  1  0  0  0  0
  8 24  1  0  0  0  0
  8 25  1  0  0  0  0
  9 26  1  0  0  0  0
  9 27  1  0  0  0  0
 11 28  1  0  0  0  0
 11 29  1  0  0  0  0
 12 30  1  0  0  0  0
 12 31  1  0  0  0  0
M  END
>  <Substance ID> (546)
546

>  <Mouse_Female_Canc> (546)
ND

>  <SAL> (546)
ND

>  <Rat_Male_Canc> (546)
3

>  <TD50_Rat> (546)
90.8

>  <TD50_Mouse> (546)
ND

>  <Rat_Female_Canc> (546)
3

>  <Canc> (546)
3

>  <MolWeight> (546)
248.36

>  <Mouse_Male_Canc> (546)
ND

>  <Mouse_Male_NTP> (546)
ND

>  <ChemName> (546)
N-Oxydiethylene thiocarbamyl-N'-oxydiethylene sulfenamide

>  <Rat_Male_NTP> (546)
ND

>  <Reference> (546)
CPDB

>  <Formula> (546)
C9H16N2O2S2

>  <SMILES> (546)
S=C(N1CCOCC1)SN1CCOCC1

>  <Rat_Female_NTP> (546)
ND

>  <CAS> (546)
13752-51-7

>  <Mouse_Female_NTP> (546)
ND

>  <Synonyms> (546)
Morpholine, 4-[(4-morpholinylthio)thioxomethyl]-; OTOS.

$$$$
547


 44 43  0  0  0  0  0  0  0  0999 V2000
   42.7154  -13.6294    0.1310 C   0  0  0  0  0  0  0  0  0  0  0  0
   43.8812  -12.8178   -0.2400 N   0  0  0  0  0  0  0  0  0  0  0  0
   45.2028  -13.4604   -0.1982 C   0  0  0  0  0  0  0  0  0  0  0  0
   37.6900  -13.7841    0.1623 C   0  0  0  0  0  0  0  0  0  0  0  0
   38.9223  -12.9308   -0.1853 C   0  0  0  0  0  0  0  0  0  0  0  0
   40.2037  -13.7115    0.1539 C   0  0  0  0  0  0  0  0  0  0  0  0
   41.4299  -12.8587   -0.2144 C   0  0  0  0  0  0  0  0  0  0  0  0
   36.4143  -12.9904   -0.1692 C   0  0  0  0  0  0  0  0  0  0  0  0
   35.1758  -13.8399    0.1639 C   0  0  0  0  0  0  0  0  0  0  0  0
   33.9058  -13.0325   -0.1563 C   0  0  0  0  0  0  0  0  0  0  0  0
   32.6623  -13.8770    0.1703 C   0  0  0  0  0  0  0  0  0  0  0  0
   31.3960  -13.0589   -0.1379 C   0  0  0  0  0  0  0  0  0  0  0  0
   30.1490  -13.9001    0.1874 C   0  0  0  0  0  0  0  0  0  0  0  0
   43.8568  -11.5243    0.1965 N   0  0  0  0  0  0  0  0  0  0  0  0
   44.8510  -10.9012    0.2475 O   0  0  0  0  0  0  0  0  0  0  0  0
   28.8830  -13.0770   -0.1128 C   0  0  0  0  0  0  0  0  0  0  0  0
   42.7340  -14.4917   -0.3749 H   0  0  0  0  0  0  0  0  0  0  0  0
   42.7384  -13.8178    1.1129 H   0  0  0  0  0  0  0  0  0  0  0  0
   45.9032  -12.8012   -0.4719 H   0  0  0  0  0  0  0  0  0  0  0  0
   45.2153  -14.2391   -0.8255 H   0  0  0  0  0  0  0  0  0  0  0  0
   45.3901  -13.7785    0.7312 H   0  0  0  0  0  0  0  0  0  0  0  0
   37.7066  -14.6287   -0.3729 H   0  0  0  0  0  0  0  0  0  0  0  0
   37.7015  -14.0063    1.1372 H   0  0  0  0  0  0  0  0  0  0  0  0
   38.9128  -12.7151   -1.1617 H   0  0  0  0  0  0  0  0  0  0  0  0
   38.8996  -12.0827    0.3441 H   0  0  0  0  0  0  0  0  0  0  0  0
   40.2209  -13.9163    1.1325 H   0  0  0  0  0  0  0  0  0  0  0  0
   40.2222  -14.5654   -0.3663 H   0  0  0  0  0  0  0  0  0  0  0  0
   41.4146  -12.6591   -1.1941 H   0  0  0  0  0  0  0  0  0  0  0  0
   41.4067  -12.0021    0.3012 H   0  0  0  0  0  0  0  0  0  0  0  0
   36.3960  -12.1494    0.3716 H   0  0  0  0  0  0  0  0  0  0  0  0
   36.4086  -12.7615   -1.1426 H   0  0  0  0  0  0  0  0  0  0  0  0
   35.1871  -14.6763   -0.3841 H   0  0  0  0  0  0  0  0  0  0  0  0
   35.1848  -14.0772    1.1353 H   0  0  0  0  0  0  0  0  0  0  0  0
   33.8948  -12.1975    0.3937 H   0  0  0  0  0  0  0  0  0  0  0  0
   33.8998  -12.7929   -1.1271 H   0  0  0  0  0  0  0  0  0  0  0  0
   32.6670  -14.7074   -0.3868 H   0  0  0  0  0  0  0  0  0  0  0  0
   32.6721  -14.1249    1.1390 H   0  0  0  0  0  0  0  0  0  0  0  0
   31.3921  -12.2285    0.4193 H   0  0  0  0  0  0  0  0  0  0  0  0
   31.3871  -12.8110   -1.1066 H   0  0  0  0  0  0  0  0  0  0  0  0
   30.1495  -14.7277   -0.3741 H   0  0  0  0  0  0  0  0  0  0  0  0
   30.1606  -14.1531    1.1548 H   0  0  0  0  0  0  0  0  0  0  0  0
   28.0722  -13.6229    0.0982 H   0  0  0  0  0  0  0  0  0  0  0  0
   28.8712  -12.8237   -1.0801 H   0  0  0  0  0  0  0  0  0  0  0  0
   28.8823  -12.2492    0.4483 H   0  0  0  0  0  0  0  0  0  0  0  0
  1  2  1  0  0  0  0
  2  3  1  0  0  0  0
  4  5  1  0  0  0  0
  5  6  1  0  0  0  0
  6  7  1  0  0  0  0
  7  1  1  0  0  0  0
  4  8  1  0  0  0  0
  8  9  1  0  0  0  0
  9 10  1  0  0  0  0
 10 11  1  0  0  0  0
 12 11  1  0  0  0  0
 12 13  1  0  0  0  0
  2 14  1  0  0  0  0
 14 15  2  0  0  0  0
 13 16  1  0  0  0  0
  1 17  1  0  0  0  0
  1 18  1  0  0  0  0
  3 19  1  0  0  0  0
  3 20  1  0  0  0  0
  3 21  1  0  0  0  0
  4 22  1  0  0  0  0
  4 23  1  0  0  0  0
  5 24  1  0  0  0  0
  5 25  1  0  0  0  0
  6 26  1  0  0  0  0
  6 27  1  0  0  0  0
  7 28  1  0  0  0  0
  7 29  1  0  0  0  0
  8 30  1  0  0  0  0
  8 31  1  0  0  0  0
  9 32  1  0  0  0  0
  9 33  1  0  0  0  0
 10 34  1  0  0  0  0
 10 35  1  0  0  0  0
 11 36  1  0  0  0  0
 11 37  1  0  0  0  0
 12 38  1  0  0  0  0
 12 39  1  0  0  0  0
 13 40  1  0  0  0  0
 13 41  1  0  0  0  0
 16 42  1  0  0  0  0
 16 43  1  0  0  0  0
 16 44  1  0  0  0  0
M  END
>  <Substance ID> (547)
547

>  <Mouse_Female_Canc> (547)
ND

>  <SAL> (547)
3

>  <Rat_Male_Canc> (547)
3

>  <TD50_Rat> (547)
0.537

>  <TD50_Mouse> (547)
ND

>  <Rat_Female_Canc> (547)
3

>  <Canc> (547)
3

>  <MolWeight> (547)
228.38

>  <Mouse_Male_Canc> (547)
ND

>  <Mouse_Male_NTP> (547)
ND

>  <ChemName> (547)
N-nitroso-N-methyl-n-dodecylamine

>  <Rat_Male_NTP> (547)
ND

>  <Reference> (547)
CPDB

>  <Formula> (547)
C13H28N2O

>  <SMILES> (547)
O=NN(C)CCCCCCCCCCCC

>  <Rat_Female_NTP> (547)
ND

>  <CAS> (547)
55090-44-3

>  <Mouse_Female_NTP> (547)
ND

>  <Synonyms> (547)
Nitroso-N-methyl-N-dodecylamine.

$$$$
548
 

 26 27  0  0  0  0  0  0  0  0999 V2000
    5.8852    2.9581   -0.0750 Cl  0  0  0  0  0  0  0  0  0  1  0  0
    4.1231    2.9703    0.0258 C   0  0  1  0  0  0  0  0  0  2  0  0
    3.5195    1.7357   -0.7273 C   0  0  0  0  0  0  0  0  0  3  0  0
    2.0259    1.7111   -0.2817 C   0  0  0  0  0  0  0  0  0  4  0  0
    0.8259    2.2666   -1.4574 Cl  0  0  0  0  0  0  0  0  0  5  0  0
    1.6872    0.0455    0.1975 Cl  0  0  0  0  0  0  0  0  0  6  0  0
    2.0349    2.8588    0.8198 C   0  0  2  0  0  0  0  0  0  7  0  0
    3.4427    2.8153    1.5072 C   0  0  2  0  0  0  0  0  0  8  0  0
    3.7188    1.3661    2.4994 Cl  0  0  0  0  0  0  0  0  0  9  0  0
    0.5613    2.8969    1.7905 Cl  0  0  0  0  0  0  0  0  0 10  0  0
    2.1970    4.1371    0.0135 C   0  0  0  0  0  0  0  0  0 11  0  0
    1.2239    5.0222   -0.2093 C   0  0  0  0  0  0  0  0  0 12  0  0
    3.5718    4.3346   -0.3894 C   0  0  0  0  0  0  0  0  0 13  0  0
    3.7841    4.7486   -1.8609 C   0  0  0  0  0  0  0  0  0 14  0  0
    4.1653    5.4476    0.4992 C   0  0  0  0  0  0  0  0  0 15  0  0
    4.3510    0.4192    0.0973 Cl  0  0  0  0  0  0  0  0  0 16  0  0
    3.7851    1.4145   -2.4460 Cl  0  0  0  0  0  0  0  0  0 17  0  0
    3.7412    3.4467    2.2229 H   0  0  0  0  0  0  0  0  0  0  0  0
    1.4082    5.8421   -0.7513 H   0  0  0  0  0  0  0  0  0  0  0  0
    0.3102    4.8657    0.1658 H   0  0  0  0  0  0  0  0  0  0  0  0
    4.7619    4.8595   -2.0387 H   0  0  0  0  0  0  0  0  0  0  0  0
    3.3139    5.6138   -2.0355 H   0  0  0  0  0  0  0  0  0  0  0  0
    3.4144    4.0412   -2.4634 H   0  0  0  0  0  0  0  0  0  0  0  0
    5.1186    5.6067    0.2427 H   0  0  0  0  0  0  0  0  0  0  0  0
    4.1208    5.1682    1.4584 H   0  0  0  0  0  0  0  0  0  0  0  0
    3.6416    6.2902    0.3731 H   0  0  0  0  0  0  0  0  0  0  0  0
  2  1  1  6  0  0  0
  3  2  1  0  0  0  0
  4  3  1  0  0  0  0
  5  4  1  0  0  0  0
  6  4  1  0  0  0  0
  7  4  1  0  0  0  0
  8  7  1  0  0  0  0
  8  2  1  0  0  0  0
  9  8  1  0  0  0  0
  7 10  1  1  0  0  0
 11  7  1  0  0  0  0
 12 11  2  0  0  0  0
 13 11  1  0  0  0  0
 13  2  1  0  0  0  0
 14 13  1  0  0  0  0
 15 13  1  0  0  0  0
 16  3  1  0  0  0  0
 17  3  1  0  0  0  0
  8 18  1  0  0  0  0
 12 19  1  0  0  0  0
 12 20  1  0  0  0  0
 14 21  1  0  0  0  0
 14 22  1  0  0  0  0
 14 23  1  0  0  0  0
 15 24  1  0  0  0  0
 15 25  1  0  0  0  0
 15 26  1  0  0  0  0
M  END
>  <Substance ID> (548)
548

>  <Mouse_Female_Canc> (548)
1

>  <SAL> (548)
ND

>  <Rat_Male_Canc> (548)
ND

>  <TD50_Rat> (548)
ND

>  <TD50_Mouse> (548)
0.884

>  <Rat_Female_Canc> (548)
ND

>  <Canc> (548)
3

>  <MolWeight> (548)
377.35

>  <Mouse_Male_Canc> (548)
3

>  <Mouse_Male_NTP> (548)
ND

>  <ChemName> (548)
Strobane

>  <Rat_Male_NTP> (548)
ND

>  <Reference> (548)
CPDB

>  <Formula> (548)
C10H9Cl7

>  <SMILES> (548)
ClC2(Cl)[C@]1(Cl)C(/C(=C)[C@](Cl)(C1Cl)C2(Cl)Cl)(C)C

>  <Rat_Female_NTP> (548)
ND

>  <CAS> (548)
8001-50-1

>  <Mouse_Female_NTP> (548)
ND

>  <Synonyms> (548)
Dichloricide; Polychlorinated terpenes; polychlorinates of camphene, pinene and related terpenes; Strobane 6; Terpene polychlorinates.

$$$$
549
 

 24 24  0  0  0  0  0  0  0  0999 V2000
   31.1549  -25.1319    0.1370 C   0  0  0  0  0  0  0  0  0  0  0  0
   30.0564  -24.3886    0.2517 C   0  0  0  0  0  0  0  0  0  0  0  0
   28.6311  -26.3038   -0.1639 C   0  0  0  0  0  0  0  0  0  0  0  0
   29.8382  -27.1248   -0.2893 C   0  0  0  0  0  0  0  0  0  0  0  0
   28.7351  -25.0006    0.0922 C   0  0  0  0  0  0  0  0  0  0  0  0
   31.0406  -26.5679   -0.1483 C   0  0  0  0  0  0  0  0  0  0  0  0
   32.5063  -24.4934    0.3084 C   0  0  0  0  0  0  0  0  0  0  0  0
   33.6244  -25.5093    0.0126 C   0  0  0  0  0  0  0  0  0  0  0  0
   34.9232  -24.8724    0.2565 N   0  0  0  0  0  0  0  0  0  0  0  0
   35.0767  -23.6223   -0.2688 N   0  0  0  0  0  0  0  0  0  0  0  0
   36.1220  -25.7215    0.2147 C   0  0  0  0  0  0  0  0  0  0  0  0
   36.1523  -23.1682   -0.4036 O   0  0  0  0  0  0  0  0  0  0  0  0
   30.1334  -23.4109    0.4471 H   0  0  0  0  0  0  0  0  0  0  0  0
   27.7289  -26.7218   -0.2705 H   0  0  0  0  0  0  0  0  0  0  0  0
   29.7598  -28.1032   -0.4806 H   0  0  0  0  0  0  0  0  0  0  0  0
   27.9112  -24.4401    0.1754 H   0  0  0  0  0  0  0  0  0  0  0  0
   31.8646  -27.1276   -0.2368 H   0  0  0  0  0  0  0  0  0  0  0  0
   32.5879  -23.7217   -0.3222 H   0  0  0  0  0  0  0  0  0  0  0  0
   32.5989  -24.1670    1.2491 H   0  0  0  0  0  0  0  0  0  0  0  0
   33.5227  -26.3037    0.6113 H   0  0  0  0  0  0  0  0  0  0  0  0
   33.5681  -25.8014   -0.9421 H   0  0  0  0  0  0  0  0  0  0  0  0
   36.9322  -25.1644    0.3966 H   0  0  0  0  0  0  0  0  0  0  0  0
   36.2026  -26.1409   -0.6896 H   0  0  0  0  0  0  0  0  0  0  0  0
   36.0480  -26.4379    0.9085 H   0  0  0  0  0  0  0  0  0  0  0  0
  1  2  2  0  0  0  0
  3  4  1  0  0  0  0
  1  6  1  0  0  0  0
  2  5  1  0  0  0  0
  5  3  2  0  0  0  0
  4  6  2  0  0  0  0
  1  7  1  0  0  0  0
  7  8  1  0  0  0  0
  8  9  1  0  0  0  0
  9 10  1  0  0  0  0
  9 11  1  0  0  0  0
 10 12  2  0  0  0  0
  2 13  1  0  0  0  0
  3 14  1  0  0  0  0
  4 15  1  0  0  0  0
  5 16  1  0  0  0  0
  6 17  1  0  0  0  0
  7 18  1  0  0  0  0
  7 19  1  0  0  0  0
  8 20  1  0  0  0  0
  8 21  1  0  0  0  0
 11 22  1  0  0  0  0
 11 23  1  0  0  0  0
 11 24  1  0  0  0  0
M  END
>  <Substance ID> (549)
549

>  <Mouse_Female_Canc> (549)
ND

>  <SAL> (549)
ND

>  <Rat_Male_Canc> (549)
3

>  <TD50_Rat> (549)
9.98E-03

>  <TD50_Mouse> (549)
ND

>  <Rat_Female_Canc> (549)
ND

>  <Canc> (549)
3

>  <MolWeight> (549)
164.21

>  <Mouse_Male_Canc> (549)
ND

>  <Mouse_Male_NTP> (549)
ND

>  <ChemName> (549)
Nitroso-N-methyl-N-(2-phenylethyl)amine

>  <Rat_Male_NTP> (549)
ND

>  <Reference> (549)
CPDB

>  <Formula> (549)
C9H12N2O

>  <SMILES> (549)
C1=CC=CC(=C1)CCN(C)N=O

>  <Rat_Female_NTP> (549)
ND

>  <CAS> (549)
13256-11-6

>  <Mouse_Female_NTP> (549)
ND

>  <Synonyms> (549)
-

$$$$
550


 13 13  0  0  0  0  0  0  0  0999 V2000
   37.1362  -34.1852   -0.0828 C   0  0  0  0  0  0  0  0  0  0  0  0
   37.1461  -35.2563    0.9994 C   0  0  0  0  0  0  0  0  0  0  0  0
   38.1529  -36.3767    0.0931 S   0  0  0  0  0  0  0  0  0  0  0  0
   39.3335  -35.2993   -0.4436 O   0  0  0  0  0  0  0  0  0  0  0  0
   38.6721  -33.9767   -0.3970 C   0  0  0  0  0  0  0  0  0  0  0  0
   37.3691  -36.8908   -1.0994 O   0  0  0  0  0  0  0  0  0  0  0  0
   38.6959  -37.5188    0.9308 O   0  0  0  0  0  0  0  0  0  0  0  0
   36.6437  -34.4997   -0.8943 H   0  0  0  0  0  0  0  0  0  0  0  0
   36.7208  -33.3398    0.2530 H   0  0  0  0  0  0  0  0  0  0  0  0
   37.5730  -34.9481    1.8496 H   0  0  0  0  0  0  0  0  0  0  0  0
   36.2359  -35.6209    1.1959 H   0  0  0  0  0  0  0  0  0  0  0  0
   39.0887  -33.4178    0.3200 H   0  0  0  0  0  0  0  0  0  0  0  0
   38.7752  -33.5182   -1.2797 H   0  0  0  0  0  0  0  0  0  0  0  0
  1  2  1  0  0  0  0
  2  3  1  0  0  0  0
  3  4  1  0  0  0  0
  4  5  1  0  0  0  0
  1  5  1  0  0  0  0
  3  6  2  0  0  0  0
  3  7  2  0  0  0  0
  1  8  1  0  0  0  0
  1  9  1  0  0  0  0
  2 10  1  0  0  0  0
  2 11  1  0  0  0  0
  5 12  1  0  0  0  0
  5 13  1  0  0  0  0
M  END
>  <Substance ID> (550)
550

>  <Mouse_Female_Canc> (550)
ND

>  <SAL> (550)
3

>  <Rat_Male_Canc> (550)
3

>  <TD50_Rat> (550)
3.84

>  <TD50_Mouse> (550)
ND

>  <Rat_Female_Canc> (550)
3

>  <Canc> (550)
3

>  <MolWeight> (550)
122.14

>  <Mouse_Male_Canc> (550)
ND

>  <Mouse_Male_NTP> (550)
ND

>  <ChemName> (550)
Propane sultone

>  <Rat_Male_NTP> (550)
ND

>  <Reference> (550)
CPDB

>  <Formula> (550)
C3H6O3S

>  <SMILES> (550)
O=S1(=O)CCCO1

>  <Rat_Female_NTP> (550)
ND

>  <CAS> (550)
1120-71-4

>  <Mouse_Female_NTP> (550)
ND

>  <Synonyms> (550)
1,2-Oxathiolane 2,2-dioxide; 1,2-OXATHIOLANE 2,2-DIOXIDE (1,3-PROPANE SULTONE); 1,3-Propane Sultone; 3-Hydroxy-1-propanesulfonic acid gamma-sultone.

$$$$
551
 

 89 93  0  0  0  0  0  0  0  0999 V2000
   44.4178  -39.6796    0.0888 C   0  0  0  0  0  0  0  0  0  0  0  0
   45.4352  -40.5190    0.2512 C   0  0  0  0  0  0  0  0  0  0  0  0
   47.1005  -38.7967    0.0225 C   0  0  0  0  0  0  0  0  0  0  0  0
   45.9837  -37.8074   -0.1690 C   0  0  0  0  0  0  0  0  0  0  0  0
   46.8028  -40.0670    0.2220 C   0  0  0  0  0  0  0  0  0  0  0  0
   44.7004  -38.2311   -0.1315 C   0  0  0  0  0  0  0  0  0  0  0  0
   28.2399  -46.5798   -0.9739 C   0  0  0  0  0  0  0  0  0  0  0  0
   28.3205  -47.9502   -0.5034 C   0  0  0  0  0  0  0  0  0  0  0  0
   29.6142  -48.4670   -0.0481 C   0  0  0  0  0  0  0  0  0  0  0  0
   29.2596  -45.7469   -0.7759 C   0  0  0  0  0  0  0  0  0  0  0  0
   30.4630  -46.1435    0.0597 C   0  0  1  0  0  0  0  0  0  0  0  0
   30.6470  -47.6423    0.1590 C   0  0  0  0  0  0  0  0  0  0  0  0
   31.9729  -48.2096    0.6573 C   0  0  0  0  0  0  0  0  0  0  0  0
   33.2157  -47.3333    0.2831 C   0  0  0  0  0  0  0  0  0  0  0  0
   31.7940  -45.3706   -0.3899 C   0  0  2  0  0  0  0  0  0  0  0  0
   32.9947  -45.8122    0.5129 C   0  0  1  0  0  0  0  0  0  0  0  0
   32.9085  -43.0770   -0.7321 C   0  0  0  0  0  0  0  0  0  0  0  0
   31.5775  -43.7794   -0.3277 C   0  0  1  0  0  0  0  0  0  0  0  0
   34.0886  -43.5131    0.2171 C   0  0  1  0  0  0  0  0  0  0  0  0
   34.2849  -44.9947    0.0729 C   0  0  2  0  0  0  0  0  0  0  0  0
   35.5803  -45.2258    0.9195 C   0  0  0  0  0  0  0  0  0  0  0  0
   36.3923  -43.8372    0.7397 C   0  0  0  0  0  0  0  0  0  0  0  0
   35.4760  -43.0195   -0.2228 C   0  0  2  0  0  0  0  0  0  0  0  0
   27.3263  -48.6833   -0.5427 O   0  0  0  0  0  0  0  0  0  0  0  0
   30.0767  -45.7792    1.5295 C   0  0  0  0  0  0  0  0  0  0  0  0
   31.1950  -43.3050    0.9586 O   0  0  0  0  0  0  0  0  0  0  0  0
   33.8736  -43.0983    1.7170 C   0  0  0  0  0  0  0  0  0  0  0  0
   35.7076  -43.4875   -1.5565 O   0  0  0  0  0  0  0  0  0  0  0  0
   35.6139  -41.4534   -0.1735 C   0  0  0  0  0  0  0  0  0  0  0  0
   34.5743  -40.7918   -0.0893 O   0  0  0  0  0  0  0  0  0  0  0  0
   36.9133  -40.6239   -0.2349 C   0  0  0  0  0  0  0  0  0  0  0  0
   38.1650  -41.2873   -0.0928 O   0  0  0  0  0  0  0  0  0  0  0  0
   39.1903  -40.2854   -0.1380 C   0  0  0  0  0  0  0  0  0  0  0  0
   38.8916  -39.0953   -0.2954 O   0  0  0  0  0  0  0  0  0  0  0  0
   40.6394  -40.6941    0.0174 C   0  0  0  0  0  0  0  0  0  0  0  0
   41.7190  -39.5429   -0.0671 C   0  0  0  0  0  0  0  0  0  0  0  0
   43.0320  -40.3382    0.1413 C   0  0  0  0  0  0  0  0  0  0  0  0
   48.4912  -38.4368    0.0089 N   0  0  0  0  0  0  0  0  0  0  0  0
   48.9131  -37.0691   -0.3303 C   0  0  0  0  0  0  0  0  0  0  0  0
   49.4538  -39.5111    0.3766 C   0  0  0  0  0  0  0  0  0  0  0  0
   50.1740  -36.5920    0.4613 C   0  0  0  0  0  0  0  0  0  0  0  0
   50.6603  -34.9842   -0.0870 Cl  0  0  0  0  0  0  0  0  0  0  0  0
   50.6360  -39.7411   -0.6177 C   0  0  0  0  0  0  0  0  0  0  0  0
   51.6069  -41.1045   -0.0342 Cl  0  0  0  0  0  0  0  0  0  0  0  0
   32.7765  -45.6010    1.5619 H   0  0  0  0  0  0  0  0  0  0  0  0
   32.0542  -45.6378   -1.4263 H   0  0  0  0  0  0  0  0  0  0  0  0
   34.5047  -45.1842   -0.9860 H   0  0  0  0  0  0  0  0  0  0  0  0
   45.2465  -41.4901    0.3975 H   0  0  0  0  0  0  0  0  0  0  0  0
   46.1894  -36.8411   -0.3233 H   0  0  0  0  0  0  0  0  0  0  0  0
   47.5408  -40.7285    0.3554 H   0  0  0  0  0  0  0  0  0  0  0  0
   43.9495  -37.5814   -0.2499 H   0  0  0  0  0  0  0  0  0  0  0  0
   27.4184  -46.2610   -1.4468 H   0  0  0  0  0  0  0  0  0  0  0  0
   29.7262  -49.4481    0.1095 H   0  0  0  0  0  0  0  0  0  0  0  0
   29.2320  -44.8364   -1.1885 H   0  0  0  0  0  0  0  0  0  0  0  0
   31.9289  -48.2851    1.6535 H   0  0  0  0  0  0  0  0  0  0  0  0
   32.0966  -49.1184    0.2588 H   0  0  0  0  0  0  0  0  0  0  0  0
   33.9906  -47.6284    0.8422 H   0  0  0  0  0  0  0  0  0  0  0  0
   33.4265  -47.4798   -0.6834 H   0  0  0  0  0  0  0  0  0  0  0  0
   32.7874  -42.0864   -0.6693 H   0  0  0  0  0  0  0  0  0  0  0  0
   33.1368  -43.3264   -1.6732 H   0  0  0  0  0  0  0  0  0  0  0  0
   30.8298  -43.5654   -0.9563 H   0  0  0  0  0  0  0  0  0  0  0  0
   36.1075  -45.9978    0.5646 H   0  0  0  0  0  0  0  0  0  0  0  0
   35.3562  -45.3881    1.8805 H   0  0  0  0  0  0  0  0  0  0  0  0
   36.5020  -43.3687    1.6163 H   0  0  0  0  0  0  0  0  0  0  0  0
   37.2912  -43.9966    0.3316 H   0  0  0  0  0  0  0  0  0  0  0  0
   30.8313  -46.0159    2.1414 H   0  0  0  0  0  0  0  0  0  0  0  0
   29.2592  -46.2898    1.7961 H   0  0  0  0  0  0  0  0  0  0  0  0
   29.8920  -44.7984    1.5927 H   0  0  0  0  0  0  0  0  0  0  0  0
   31.0775  -42.3125    0.9270 H   0  0  0  0  0  0  0  0  0  0  0  0
   34.6540  -43.4031    2.2628 H   0  0  0  0  0  0  0  0  0  0  0  0
   33.0379  -43.5238    2.0645 H   0  0  0  0  0  0  0  0  0  0  0  0
   33.7916  -42.1036    1.7798 H   0  0  0  0  0  0  0  0  0  0  0  0
   35.1303  -42.9774   -2.1941 H   0  0  0  0  0  0  0  0  0  0  0  0
   36.9251  -40.1639   -1.1227 H   0  0  0  0  0  0  0  0  0  0  0  0
   36.8595  -39.9415    0.4941 H   0  0  0  0  0  0  0  0  0  0  0  0
   40.7353  -41.1334    0.9106 H   0  0  0  0  0  0  0  0  0  0  0  0
   40.8457  -41.3555   -0.7038 H   0  0  0  0  0  0  0  0  0  0  0  0
   41.7029  -39.0914   -0.9592 H   0  0  0  0  0  0  0  0  0  0  0  0
   41.5853  -38.8628    0.6537 H   0  0  0  0  0  0  0  0  0  0  0  0
   42.9599  -40.7594    1.0454 H   0  0  0  0  0  0  0  0  0  0  0  0
   43.0378  -41.0513   -0.5597 H   0  0  0  0  0  0  0  0  0  0  0  0
   49.1215  -37.0353   -1.3078 H   0  0  0  0  0  0  0  0  0  0  0  0
   48.1578  -36.4456   -0.1283 H   0  0  0  0  0  0  0  0  0  0  0  0
   49.8442  -39.2800    1.2677 H   0  0  0  0  0  0  0  0  0  0  0  0
   48.9431  -40.3679    0.4479 H   0  0  0  0  0  0  0  0  0  0  0  0
   49.9586  -36.5578    1.4373 H   0  0  0  0  0  0  0  0  0  0  0  0
   50.9242  -37.2351    0.3075 H   0  0  0  0  0  0  0  0  0  0  0  0
   50.2758  -39.9487   -1.5271 H   0  0  0  0  0  0  0  0  0  0  0  0
   51.2030  -38.9186   -0.6629 H   0  0  0  0  0  0  0  0  0  0  0  0
  1  2  2  0  0  0  0
  3  4  1  0  0  0  0
  1  6  1  0  0  0  0
  2  5  1  0  0  0  0
  5  3  2  0  0  0  0
  4  6  2  0  0  0  0
  7  8  1  0  0  0  0
  7 10  2  0  0  0  0
  8  9  1  0  0  0  0
  9 12  2  0  0  0  0
 11 10  1  0  0  0  0
 11 12  1  0  0  0  0
 11 15  1  0  0  0  0
 12 13  1  0  0  0  0
 13 14  1  0  0  0  0
 14 16  1  0  0  0  0
 15 16  1  0  0  0  0
 15 18  1  0  0  0  0
 16 20  1  0  0  0  0
 19 17  1  0  0  0  0
 17 18  1  0  0  0  0
 19 20  1  0  0  0  0
 21 22  1  0  0  0  0
 22 23  1  0  0  0  0
 23 19  1  0  0  0  0
 20 21  1  0  0  0  0
  8 24  2  0  0  0  0
 11 25  1  1  0  0  0
 18 26  1  1  0  0  0
 19 27  1  1  0  0  0
 23 28  1  6  0  0  0
 23 29  1  1  0  0  0
 29 30  2  0  0  0  0
 29 31  1  0  0  0  0
 31 32  1  0  0  0  0
 32 33  1  0  0  0  0
 33 34  2  0  0  0  0
 33 35  1  0  0  0  0
 35 36  1  0  0  0  0
 36 37  1  0  0  0  0
 37  1  1  0  0  0  0
  3 38  1  0  0  0  0
 38 39  1  0  0  0  0
 38 40  1  0  0  0  0
 39 41  1  0  0  0  0
 41 42  1  0  0  0  0
 40 43  1  0  0  0  0
 43 44  1  0  0  0  0
 16 45  1  1  0  0  0
 15 46  1  6  0  0  0
 20 47  1  6  0  0  0
  2 48  1  0  0  0  0
  4 49  1  0  0  0  0
  5 50  1  0  0  0  0
  6 51  1  0  0  0  0
  7 52  1  0  0  0  0
  9 53  1  0  0  0  0
 10 54  1  0  0  0  0
 13 55  1  0  0  0  0
 13 56  1  0  0  0  0
 14 57  1  0  0  0  0
 14 58  1  0  0  0  0
 17 59  1  0  0  0  0
 17 60  1  0  0  0  0
 18 61  1  0  0  0  0
 21 62  1  0  0  0  0
 21 63  1  0  0  0  0
 22 64  1  0  0  0  0
 22 65  1  0  0  0  0
 25 66  1  0  0  0  0
 25 67  1  0  0  0  0
 25 68  1  0  0  0  0
 26 69  1  0  0  0  0
 27 70  1  0  0  0  0
 27 71  1  0  0  0  0
 27 72  1  0  0  0  0
 28 73  1  0  0  0  0
 31 74  1  0  0  0  0
 31 75  1  0  0  0  0
 35 76  1  0  0  0  0
 35 77  1  0  0  0  0
 36 78  1  0  0  0  0
 36 79  1  0  0  0  0
 37 80  1  0  0  0  0
 37 81  1  0  0  0  0
 39 82  1  0  0  0  0
 39 83  1  0  0  0  0
 40 84  1  0  0  0  0
 40 85  1  0  0  0  0
 41 86  1  0  0  0  0
 41 87  1  0  0  0  0
 43 88  1  0  0  0  0
 43 89  1  0  0  0  0
M  END
>  <Substance ID> (551)
551

>  <Mouse_Female_Canc> (551)
ND

>  <SAL> (551)
ND

>  <Rat_Male_Canc> (551)
ND

>  <TD50_Rat> (551)
19.2

>  <TD50_Mouse> (551)
ND

>  <Rat_Female_Canc> (551)
3

>  <Canc> (551)
3

>  <MolWeight> (551)
646.65

>  <Mouse_Male_Canc> (551)
ND

>  <Mouse_Male_NTP> (551)
ND

>  <ChemName> (551)
Prednimustine

>  <Rat_Male_NTP> (551)
ND

>  <Reference> (551)
CPDB

>  <Formula> (551)
C35H45Cl2NO6

>  <SMILES> (551)
ClCCN(c1ccc(cc1)CCCC(=O)OCC(=O)[C@@]2(O)CC[C@H]3[C@H]5[C@H]([C@@H](O)C[C@]23C)[C@]/4(/C=C\C(=O)\C=C\4CC5)C)CCCl

>  <Rat_Female_NTP> (551)
ND

>  <CAS> (551)
29069-24-7

>  <Mouse_Female_NTP> (551)
ND

>  <Synonyms> (551)
-

$$$$
552


 32 34  0  0  0  0  0  0  0  0999 V2000
   37.3618  -55.1916    0.0014 C   0  0  0  0  0  0  0  0  0  0  0  0
   38.5311  -55.8308   -0.0010 C   0  0  0  0  0  0  0  0  0  0  0  0
   39.7925  -53.7974   -0.0002 C   0  0  0  0  0  0  0  0  0  0  0  0
   38.5255  -53.0603   -0.0000 C   0  0  0  0  0  0  0  0  0  0  0  0
   39.7867  -55.1218   -0.0007 C   0  0  0  0  0  0  0  0  0  0  0  0
   37.3640  -53.7196    0.0020 C   0  0  0  0  0  0  0  0  0  0  0  0
   31.1696  -55.9582   -0.0013 C   0  0  0  0  0  0  0  0  0  0  0  0
   31.1653  -57.2883   -0.0038 C   0  0  0  0  0  0  0  0  0  0  0  0
   32.4245  -58.0155   -0.0020 C   0  0  0  0  0  0  0  0  0  0  0  0
   32.4478  -55.2260    0.0001 C   0  0  0  0  0  0  0  0  0  0  0  0
   33.6051  -55.8918    0.0008 C   0  0  0  0  0  0  0  0  0  0  0  0
   33.5820  -57.3465    0.0000 C   0  0  0  0  0  0  0  0  0  0  0  0
   34.8207  -58.0403    0.0011 C   0  0  0  0  0  0  0  0  0  0  0  0
   36.0383  -57.3071    0.0011 C   0  0  0  0  0  0  0  0  0  0  0  0
   36.0556  -55.9507    0.0017 C   0  0  0  0  0  0  0  0  0  0  0  0
   34.8406  -55.1648    0.0021 O   0  0  0  0  0  0  0  0  0  0  0  0
   29.9618  -55.2652   -0.0008 O   0  0  0  0  0  0  0  0  0  0  0  0
   32.4030  -59.4086   -0.0020 O   0  0  0  0  0  0  0  0  0  0  0  0
   34.8664  -59.2755    0.0015 O   0  0  0  0  0  0  0  0  0  0  0  0
   41.0021  -53.1185    0.0001 O   0  0  0  0  0  0  0  0  0  0  0  0
   38.5440  -51.6702    0.0011 O   0  0  0  0  0  0  0  0  0  0  0  0
   37.1949  -58.0767    0.0008 O   0  0  0  0  0  0  0  0  0  0  0  0
   38.5380  -56.8308   -0.0030 H   0  0  0  0  0  0  0  0  0  0  0  0
   40.6492  -55.6279   -0.0009 H   0  0  0  0  0  0  0  0  0  0  0  0
   36.5002  -53.2158    0.0040 H   0  0  0  0  0  0  0  0  0  0  0  0
   30.2985  -57.7869   -0.0069 H   0  0  0  0  0  0  0  0  0  0  0  0
   32.4487  -54.2260    0.0005 H   0  0  0  0  0  0  0  0  0  0  0  0
   30.1414  -54.2815    0.0012 H   0  0  0  0  0  0  0  0  0  0  0  0
   33.3403  -59.7570   -0.0007 H   0  0  0  0  0  0  0  0  0  0  0  0
   41.7546  -53.7770   -0.0001 H   0  0  0  0  0  0  0  0  0  0  0  0
   37.6059  -51.3239    0.0011 H   0  0  0  0  0  0  0  0  0  0  0  0
   37.9950  -57.4768    0.0008 H   0  0  0  0  0  0  0  0  0  0  0  0
  1  2  2  0  0  0  0
  3  4  1  0  0  0  0
  1  6  1  0  0  0  0
  2  5  1  0  0  0  0
  5  3  2  0  0  0  0
  4  6  2  0  0  0  0
  7  8  2  0  0  0  0
  7 10  1  0  0  0  0
  8  9  1  0  0  0  0
  9 12  2  0  0  0  0
 11 10  2  0  0  0  0
 11 12  1  0  0  0  0
 11 16  1  0  0  0  0
 12 13  1  0  0  0  0
 13 14  1  0  0  0  0
 14 15  2  0  0  0  0
 15 16  1  0  0  0  0
 15  1  1  0  0  0  0
  7 17  1  0  0  0  0
  9 18  1  0  0  0  0
 13 19  2  0  0  0  0
  3 20  1  0  0  0  0
  4 21  1  0  0  0  0
 14 22  1  0  0  0  0
  2 23  1  0  0  0  0
  5 24  1  0  0  0  0
  6 25  1  0  0  0  0
  8 26  1  0  0  0  0
 10 27  1  0  0  0  0
 17 28  1  0  0  0  0
 18 29  1  0  0  0  0
 20 30  1  0  0  0  0
 21 31  1  0  0  0  0
 22 32  1  0  0  0  0
M  END
>  <Substance ID> (552)
552

>  <Mouse_Female_Canc> (552)
1

>  <SAL> (552)
3

>  <Rat_Male_Canc> (552)
3

>  <TD50_Rat> (552)
10.1

>  <TD50_Mouse> (552)
NP

>  <Rat_Female_Canc> (552)
1

>  <Canc> (552)
3

>  <MolWeight> (552)
302.24

>  <Mouse_Male_Canc> (552)
1

>  <Mouse_Male_NTP> (552)
ND

>  <ChemName> (552)
Quercetin

>  <Rat_Male_NTP> (552)
SE

>  <Reference> (552)
CPDB & NTP409

>  <Formula> (552)
C15H10O7

>  <SMILES> (552)
O=C1C2=C(C=C(C=C2O)O)OC(=C1O)C3=CC(=C(C=C3)O)O

>  <Rat_Female_NTP> (552)
NE

>  <CAS> (552)
117-39-5

>  <Mouse_Female_NTP> (552)
ND

>  <Synonyms> (552)
2-(3,4-dihydroxyphenyl)-3,5,7-trihydroxy-4H-1-benzopyran-4-one; 3,3',4',5,7-pentahydroxyflavone; 3',4',5,7-tetrahydroxyflavon-3-ol; 3,5,7,3',4'-pentahydroxyflavone; C.I. 75670; C.I. natural red 1; C.I. natural yellow 10; C.I. natural yellow 10 & 13; cyanidelonon 1522; meletin; quercetol; quertine; sophoretin; t-gelb bzw. grun 1; xanthaurine.

$$$$
553


 39 39  0  0  0  0  0  0  0  0999 V2000
   30.3943  -64.3930    0.4692 C   0  0  0  0  0  0  0  0  0  0  0  0
   29.9051  -65.5905   -0.4039 C   0  0  0  0  0  0  0  0  0  0  0  0
   31.0952  -66.5512   -0.7211 C   0  0  0  0  0  0  0  0  0  0  0  0
   31.5110  -67.4758    0.4653 C   0  0  0  0  0  0  0  0  0  0  0  0
   32.9502  -67.9844    0.1708 C   0  0  0  0  0  0  0  0  0  0  0  0
   31.5959  -63.7475   -0.2715 C   0  0  0  0  0  0  0  0  0  0  0  0
   32.2020  -62.5024    0.4371 C   0  0  0  0  0  0  0  0  0  0  0  0
   33.6451  -62.3747   -0.1183 C   0  0  0  0  0  0  0  0  0  0  0  0
   34.3252  -63.6462    0.4024 C   0  0  0  0  0  0  0  0  0  0  0  0
   35.6220  -64.1015   -0.3183 C   0  0  0  0  0  0  0  0  0  0  0  0
   33.8214  -66.7458    0.3812 C   0  0  0  0  0  0  0  0  0  0  0  0
   35.2863  -66.7945   -0.1286 C   0  0  0  0  0  0  0  0  0  0  0  0
   36.0966  -65.4977    0.1454 N   0  0  0  0  0  0  0  0  0  0  0  0
   37.4144  -65.6883   -0.1552 N   0  0  0  0  0  0  0  0  0  0  0  0
   38.1126  -64.7648   -0.3542 O   0  0  0  0  0  0  0  0  0  0  0  0
   29.6586  -63.7242    0.5767 H   0  0  0  0  0  0  0  0  0  0  0  0
   30.6821  -64.7201    1.3692 H   0  0  0  0  0  0  0  0  0  0  0  0
   29.1982  -66.0939    0.0929 H   0  0  0  0  0  0  0  0  0  0  0  0
   29.5260  -65.2409   -1.2607 H   0  0  0  0  0  0  0  0  0  0  0  0
   30.8319  -67.1311   -1.4921 H   0  0  0  0  0  0  0  0  0  0  0  0
   31.8863  -65.9953   -0.9764 H   0  0  0  0  0  0  0  0  0  0  0  0
   31.4989  -66.9599    1.3218 H   0  0  0  0  0  0  0  0  0  0  0  0
   30.8815  -68.2499    0.5329 H   0  0  0  0  0  0  0  0  0  0  0  0
   33.2076  -68.7134    0.8052 H   0  0  0  0  0  0  0  0  0  0  0  0
   33.0253  -68.3178   -0.7690 H   0  0  0  0  0  0  0  0  0  0  0  0
   32.3149  -64.4370   -0.3588 H   0  0  0  0  0  0  0  0  0  0  0  0
   31.2881  -63.4691   -1.1813 H   0  0  0  0  0  0  0  0  0  0  0  0
   31.6702  -61.6836    0.2210 H   0  0  0  0  0  0  0  0  0  0  0  0
   32.2191  -62.6375    1.4278 H   0  0  0  0  0  0  0  0  0  0  0  0
   33.6450  -62.3504   -1.1180 H   0  0  0  0  0  0  0  0  0  0  0  0
   34.0955  -61.5550    0.2355 H   0  0  0  0  0  0  0  0  0  0  0  0
   34.5533  -63.4932    1.3640 H   0  0  0  0  0  0  0  0  0  0  0  0
   33.6634  -64.3924    0.3309 H   0  0  0  0  0  0  0  0  0  0  0  0
   35.4480  -64.1325   -1.3026 H   0  0  0  0  0  0  0  0  0  0  0  0
   36.3450  -63.4374   -0.1279 H   0  0  0  0  0  0  0  0  0  0  0  0
   33.3703  -65.9824   -0.0811 H   0  0  0  0  0  0  0  0  0  0  0  0
   33.8541  -66.5682    1.3647 H   0  0  0  0  0  0  0  0  0  0  0  0
   35.7508  -67.5563    0.3230 H   0  0  0  0  0  0  0  0  0  0  0  0
   35.2700  -66.9517   -1.1161 H   0  0  0  0  0  0  0  0  0  0  0  0
  1  2  1  0  0  0  0
  2  3  1  0  0  0  0
  3  4  1  0  0  0  0
  4  5  1  0  0  0  0
  1  6  1  0  0  0  0
  6  7  1  0  0  0  0
  7  8  1  0  0  0  0
  8  9  1  0  0  0  0
  9 10  1  0  0  0  0
  5 11  1  0  0  0  0
 11 12  1  0  0  0  0
 12 13  1  0  0  0  0
 10 13  1  0  0  0  0
 13 14  1  0  0  0  0
 14 15  2  0  0  0  0
  1 16  1  0  0  0  0
  1 17  1  0  0  0  0
  2 18  1  0  0  0  0
  2 19  1  0  0  0  0
  3 20  1  0  0  0  0
  3 21  1  0  0  0  0
  4 22  1  0  0  0  0
  4 23  1  0  0  0  0
  5 24  1  0  0  0  0
  5 25  1  0  0  0  0
  6 26  1  0  0  0  0
  6 27  1  0  0  0  0
  7 28  1  0  0  0  0
  7 29  1  0  0  0  0
  8 30  1  0  0  0  0
  8 31  1  0  0  0  0
  9 32  1  0  0  0  0
  9 33  1  0  0  0  0
 10 34  1  0  0  0  0
 10 35  1  0  0  0  0
 11 36  1  0  0  0  0
 11 37  1  0  0  0  0
 12 38  1  0  0  0  0
 12 39  1  0  0  0  0
M  END
>  <Substance ID> (553)
553

>  <Mouse_Female_Canc> (553)
ND

>  <SAL> (553)
3

>  <Rat_Male_Canc> (553)
3

>  <TD50_Rat> (553)
10.9

>  <TD50_Mouse> (553)
ND

>  <Rat_Female_Canc> (553)
3

>  <Canc> (553)
3

>  <MolWeight> (553)
212.33

>  <Mouse_Male_Canc> (553)
ND

>  <Mouse_Male_NTP> (553)
ND

>  <ChemName> (553)
Nitrosododecamethyleneimine

>  <Rat_Male_NTP> (553)
ND

>  <Reference> (553)
CPDB

>  <Formula> (553)
C12H24N2O

>  <SMILES> (553)
O=NN(CCCCCC1)CCCCCC1

>  <Rat_Female_NTP> (553)
ND

>  <CAS> (553)
40580-89-0

>  <Mouse_Female_NTP> (553)
ND

>  <Synonyms> (553)
-

$$$$
554
 

 44 45  0  0  0  0  0  0  0  0999 V2000
   37.3488  -74.9570   -0.0800 C   0  0  0  0  0  0  0  0  0  0  0  0
   38.2654  -75.8283   -0.2305 N   0  0  0  0  0  0  0  0  0  0  0  0
   39.9909  -74.2862    0.2845 C   0  0  0  0  0  0  0  0  0  0  0  0
   38.9731  -73.2600    0.4591 C   0  0  0  0  0  0  0  0  0  0  0  0
   39.6222  -75.5208   -0.0468 C   0  0  0  0  0  0  0  0  0  0  0  0
   37.6945  -73.5820    0.2868 C   0  0  0  0  0  0  0  0  0  0  0  0
   30.6323  -74.7303    0.0254 C   0  0  0  0  0  0  0  0  0  0  0  0
   31.4039  -75.8070   -0.1181 C   0  0  0  0  0  0  0  0  0  0  0  0
   33.4373  -74.4716   -0.0781 C   0  0  0  0  0  0  0  0  0  0  0  0
   32.5769  -73.2894    0.0834 C   0  0  0  0  0  0  0  0  0  0  0  0
   32.8570  -75.6706   -0.1685 C   0  0  0  0  0  0  0  0  0  0  0  0
   31.2516  -73.4117    0.1335 C   0  0  0  0  0  0  0  0  0  0  0  0
   29.2319  -74.8461    0.0725 O   0  0  0  0  0  0  0  0  0  0  0  0
   28.8163  -76.2160   -0.0550 C   0  0  0  0  0  0  0  0  0  0  0  0
   34.9755  -74.2276   -0.1214 C   0  0  0  0  0  0  0  0  0  0  0  0
   36.0023  -75.3100   -0.2856 N   0  0  0  0  0  0  0  0  0  0  0  0
   35.7532  -76.6716   -0.7153 C   0  0  0  0  0  0  0  0  0  0  0  0
   36.0018  -77.6498    0.4578 C   0  0  0  0  0  0  0  0  0  0  0  0
   36.1720  -79.0041   -0.0704 N   0  0  0  0  0  0  0  0  0  0  0  0
   36.3253  -79.9424    1.0440 C   0  0  0  0  0  0  0  0  0  0  0  0
   37.4055  -79.0286   -0.8825 C   0  0  0  0  0  0  0  0  0  0  0  0
   40.9577  -74.0653    0.4123 H   0  0  0  0  0  0  0  0  0  0  0  0
   39.2320  -72.3260    0.7052 H   0  0  0  0  0  0  0  0  0  0  0  0
   40.3146  -76.2325   -0.1654 H   0  0  0  0  0  0  0  0  0  0  0  0
   36.9785  -72.8942    0.4062 H   0  0  0  0  0  0  0  0  0  0  0  0
   30.9861  -76.7125   -0.1917 H   0  0  0  0  0  0  0  0  0  0  0  0
   32.9922  -72.3827    0.1564 H   0  0  0  0  0  0  0  0  0  0  0  0
   33.4254  -76.4868   -0.2720 H   0  0  0  0  0  0  0  0  0  0  0  0
   30.6793  -72.5993    0.2454 H   0  0  0  0  0  0  0  0  0  0  0  0
   27.8183  -76.2669   -0.0182 H   0  0  0  0  0  0  0  0  0  0  0  0
   29.2048  -76.7537    0.6932 H   0  0  0  0  0  0  0  0  0  0  0  0
   29.1361  -76.5819   -0.9290 H   0  0  0  0  0  0  0  0  0  0  0  0
   35.1264  -73.5960   -0.8819 H   0  0  0  0  0  0  0  0  0  0  0  0
   35.2000  -73.7723    0.7402 H   0  0  0  0  0  0  0  0  0  0  0  0
   34.8043  -76.7544   -1.0200 H   0  0  0  0  0  0  0  0  0  0  0  0
   36.3675  -76.8980   -1.4712 H   0  0  0  0  0  0  0  0  0  0  0  0
   36.8281  -77.3772    0.9506 H   0  0  0  0  0  0  0  0  0  0  0  0
   35.2198  -77.6301    1.0807 H   0  0  0  0  0  0  0  0  0  0  0  0
   36.4418  -80.8690    0.6865 H   0  0  0  0  0  0  0  0  0  0  0  0
   35.5106  -79.9090    1.6229 H   0  0  0  0  0  0  0  0  0  0  0  0
   37.1282  -79.6906    1.5843 H   0  0  0  0  0  0  0  0  0  0  0  0
   37.5421  -79.9467   -1.2544 H   0  0  0  0  0  0  0  0  0  0  0  0
   38.1872  -78.7818   -0.3096 H   0  0  0  0  0  0  0  0  0  0  0  0
   37.3235  -78.3739   -1.6339 H   0  0  0  0  0  0  0  0  0  0  0  0
  1  2  2  0  0  0  0
  3  4  1  0  0  0  0
  1  6  1  0  0  0  0
  2  5  1  0  0  0  0
  5  3  2  0  0  0  0
  4  6  2  0  0  0  0
  7  8  2  0  0  0  0
  9 10  1  0  0  0  0
  7 12  1  0  0  0  0
  8 11  1  0  0  0  0
 11  9  2  0  0  0  0
 10 12  2  0  0  0  0
  7 13  1  0  0  0  0
 13 14  1  0  0  0  0
  9 15  1  0  0  0  0
 15 16  1  0  0  0  0
 16  1  1  0  0  0  0
 16 17  1  0  0  0  0
 17 18  1  0  0  0  0
 18 19  1  0  0  0  0
 19 20  1  0  0  0  0
 19 21  1  0  0  0  0
  3 22  1  0  0  0  0
  4 23  1  0  0  0  0
  5 24  1  0  0  0  0
  6 25  1  0  0  0  0
  8 26  1  0  0  0  0
 10 27  1  0  0  0  0
 11 28  1  0  0  0  0
 12 29  1  0  0  0  0
 14 30  1  0  0  0  0
 14 31  1  0  0  0  0
 14 32  1  0  0  0  0
 15 33  1  0  0  0  0
 15 34  1  0  0  0  0
 17 35  1  0  0  0  0
 17 36  1  0  0  0  0
 18 37  1  0  0  0  0
 18 38  1  0  0  0  0
 20 39  1  0  0  0  0
 20 40  1  0  0  0  0
 20 41  1  0  0  0  0
 21 42  1  0  0  0  0
 21 43  1  0  0  0  0
 21 44  1  0  0  0  0
M  END
>  <Substance ID> (554)
554

>  <Mouse_Female_Canc> (554)
1

>  <SAL> (554)
1

>  <Rat_Male_Canc> (554)
1

>  <TD50_Rat> (554)
NP

>  <TD50_Mouse> (554)
NP

>  <Rat_Female_Canc> (554)
1

>  <Canc> (554)
1

>  <MolWeight> (554)
285.39

>  <Mouse_Male_Canc> (554)
1

>  <Mouse_Male_NTP> (554)
ND

>  <ChemName> (554)
Pyrilamine maleate

>  <Rat_Male_NTP> (554)
ND

>  <Reference> (554)
Toxnet

>  <Formula> (554)
C17H23N3O

>  <SMILES> (554)
O(c1ccc(cc1)CN(c2ncccc2)CCN(C)C)C

>  <Rat_Female_NTP> (554)
ND

>  <CAS> (554)
59-33-6

>  <Mouse_Female_NTP> (554)
ND

>  <Synonyms> (554)
1,2-Ethanediamine, N-[(4-methoxyphenyl)methyl]-N',N'-dimethyl-N-2-pyridinyl-, (Z)-2-butenedioate (1:1); 2-((2-(dimethylamino)ethyl)(p-methoxybenzyl)amino)pyridine bimaleate; 2-((2-(dimethylamino)ethyl)(p-methoxybenzyl)amino)pyridine maleate; 2786 r.p. maleate; Paramal; paraminyl maleate; anisopyradamine; anthisan maleate; antihist; diaminide maleate; histatex; mepyramine maleate; minihist; N-(p-methoxybenzyl)-N',N'-dimethyl-N-(alpha-pyridyl)ethylenediamine maleate; N-(dimethylaminoethyl)-N-(p-methoxyphenyl)-alpha-aminopyridine maleate; neoantergan maleate; pymafed; pyra maleate; pyranilamine maleate; pyraninyl; renstamin; stangen maleate; statomin maleate; thylogen maleate.

$$$$
555


 21 21  0  0  0  0  0  0  0  0999 V2000
   34.8640  -88.6916   -0.4058 C   0  0  0  0  0  0  0  0  0  0  0  0
   33.9944  -89.4488    0.5973 C   0  0  0  0  0  0  0  0  0  0  0  0
   33.6458  -90.8694    0.1332 C   0  0  0  0  0  0  0  0  0  0  0  0
   36.3503  -88.9150   -0.0388 C   0  0  0  0  0  0  0  0  0  0  0  0
   36.8818  -90.2862   -0.2488 N   0  0  0  0  0  0  0  0  0  0  0  0
   36.1454  -91.5019    0.1868 C   0  0  0  0  0  0  0  0  0  0  0  0
   34.8036  -91.6210   -0.5472 C   0  0  0  0  0  0  0  0  0  0  0  0
   38.2108  -90.3541    0.0509 N   0  0  0  0  0  0  0  0  0  0  0  0
   38.7119  -91.3945    0.2710 O   0  0  0  0  0  0  0  0  0  0  0  0
   34.6899  -89.0349   -1.3288 H   0  0  0  0  0  0  0  0  0  0  0  0
   34.6507  -87.7154   -0.3669 H   0  0  0  0  0  0  0  0  0  0  0  0
   34.4873  -89.5088    1.4653 H   0  0  0  0  0  0  0  0  0  0  0  0
   33.1443  -88.9393    0.7308 H   0  0  0  0  0  0  0  0  0  0  0  0
   33.3580  -91.3971    0.9324 H   0  0  0  0  0  0  0  0  0  0  0  0
   32.8884  -90.8084   -0.5169 H   0  0  0  0  0  0  0  0  0  0  0  0
   36.8982  -88.2880   -0.5926 H   0  0  0  0  0  0  0  0  0  0  0  0
   36.4621  -88.6901    0.9291 H   0  0  0  0  0  0  0  0  0  0  0  0
   36.7002  -92.3097   -0.0122 H   0  0  0  0  0  0  0  0  0  0  0  0
   35.9764  -91.4473    1.1710 H   0  0  0  0  0  0  0  0  0  0  0  0
   34.9170  -91.2533   -1.4702 H   0  0  0  0  0  0  0  0  0  0  0  0
   34.5603  -92.5895   -0.6014 H   0  0  0  0  0  0  0  0  0  0  0  0
  1  2  1  0  0  0  0
  2  3  1  0  0  0  0
  1  4  1  0  0  0  0
  5  6  1  0  0  0  0
  6  7  1  0  0  0  0
  7  3  1  0  0  0  0
  4  5  1  0  0  0  0
  5  8  1  0  0  0  0
  8  9  2  0  0  0  0
  1 10  1  0  0  0  0
  1 11  1  0  0  0  0
  2 12  1  0  0  0  0
  2 13  1  0  0  0  0
  3 14  1  0  0  0  0
  3 15  1  0  0  0  0
  4 16  1  0  0  0  0
  4 17  1  0  0  0  0
  6 18  1  0  0  0  0
  6 19  1  0  0  0  0
  7 20  1  0  0  0  0
  7 21  1  0  0  0  0
M  END
>  <Substance ID> (555)
555

>  <Mouse_Female_Canc> (555)
3

>  <SAL> (555)
3

>  <Rat_Male_Canc> (555)
ND

>  <TD50_Rat> (555)
ND

>  <TD50_Mouse> (555)
0.528

>  <Rat_Female_Canc> (555)
ND

>  <Canc> (555)
3

>  <MolWeight> (555)
128.17

>  <Mouse_Male_Canc> (555)
3

>  <Mouse_Male_NTP> (555)
ND

>  <ChemName> (555)
N-nitrosohexamethyleneimine

>  <Rat_Male_NTP> (555)
ND

>  <Reference> (555)
CPDB

>  <Formula> (555)
C6H12N2O

>  <SMILES> (555)
O=NN1CCCCCC1

>  <Rat_Female_NTP> (555)
ND

>  <CAS> (555)
932-83-2

>  <Mouse_Female_NTP> (555)
ND

>  <Synonyms> (555)
N-Nitrosohexahydroazepine.

$$$$
556
 

 25 22  0  0  0  0  0  0  0  0999 V2000
    3.8694   -4.2614    0.0413 C   0  0  0  0  0  0  0  0  0  0  0  0
    4.2016   -2.7435    0.2260 S   0  0  0  0  0  0  0  0  0  0  0  0
    5.1806   -5.4474   -0.0661 S   0  5  0  0  0  0  0  0  0  0  0  0
    2.5398   -4.6802   -0.0396 N   0  0  0  0  0  0  0  0  0  0  0  0
    2.2341   -6.0770   -0.1634 C   0  0  0  0  0  0  0  0  0  0  0  0
    1.4794   -3.7144    0.0007 C   0  0  0  0  0  0  0  0  0  0  0  0
    1.2427   -6.1990   -0.2084 H   0  0  0  0  0  0  0  0  0  0  0  0
    2.5945   -6.5691    0.6291 H   0  0  0  0  0  0  0  0  0  0  0  0
    2.6520   -6.4375   -0.9974 H   0  0  0  0  0  0  0  0  0  0  0  0
    0.5986   -4.1827   -0.0683 H   0  0  0  0  0  0  0  0  0  0  0  0
    1.5786   -3.0776   -0.7640 H   0  0  0  0  0  0  0  0  0  0  0  0
    1.5209   -3.2088    0.8625 H   0  0  0  0  0  0  0  0  0  0  0  0
   11.9608   -5.8356   -0.0232 S   0  5  0  0  0  0  0  0  0  0  0  0
   13.1903   -4.5621    0.0432 C   0  0  0  0  0  0  0  0  0  0  0  0
   12.7589   -3.0660    0.1991 S   0  0  0  0  0  0  0  0  0  0  0  0
   14.5446   -4.8927   -0.0430 N   0  0  0  0  0  0  0  0  0  0  0  0
   15.5369   -3.8561   -0.0549 C   0  0  0  0  0  0  0  0  0  0  0  0
   14.9443   -6.2683   -0.1204 C   0  0  0  0  0  0  0  0  0  0  0  0
   16.4467   -4.2657   -0.1203 H   0  0  0  0  0  0  0  0  0  0  0  0
   15.4720   -3.3223    0.7882 H   0  0  0  0  0  0  0  0  0  0  0  0
   15.3843   -3.2570   -0.8409 H   0  0  0  0  0  0  0  0  0  0  0  0
   15.9412   -6.3237   -0.1762 H   0  0  0  0  0  0  0  0  0  0  0  0
   14.5416   -6.6877   -0.9341 H   0  0  0  0  0  0  0  0  0  0  0  0
   14.6291   -6.7539    0.6950 H   0  0  0  0  0  0  0  0  0  0  0  0
    7.9388   -4.0960    0.1082 Zn  0  2  0  0  0  0  0  0  0  0  0  0
  1  2  2  0  0  0  0
  1  3  1  0  0  0  0
  1  4  1  0  0  0  0
  4  5  1  0  0  0  0
  4  6  1  0  0  0  0
  5  7  1  0  0  0  0
  5  8  1  0  0  0  0
  5  9  1  0  0  0  0
  6 10  1  0  0  0  0
  6 11  1  0  0  0  0
  6 12  1  0  0  0  0
 13 14  1  0  0  0  0
 14 15  2  0  0  0  0
 14 16  1  0  0  0  0
 16 17  1  0  0  0  0
 16 18  1  0  0  0  0
 17 19  1  0  0  0  0
 17 20  1  0  0  0  0
 17 21  1  0  0  0  0
 18 22  1  0  0  0  0
 18 23  1  0  0  0  0
 18 24  1  0  0  0  0
M  END
>  <Substance ID> (556)
556

>  <Mouse_Female_Canc> (556)
2

>  <SAL> (556)
3

>  <Rat_Male_Canc> (556)
3

>  <TD50_Rat> (556)
40.7

>  <TD50_Mouse> (556)
NP

>  <Rat_Female_Canc> (556)
1

>  <Canc> (556)
3

>  <MolWeight> (556)
305.81

>  <Mouse_Male_Canc> (556)
1

>  <Mouse_Male_NTP> (556)
ND

>  <ChemName> (556)
Zinc dimethyldithiocarbamate

>  <Rat_Male_NTP> (556)
ND

>  <Reference> (556)
NTP238

>  <Formula> (556)
C6H12N2S4Zn

>  <SMILES> (556)
[Zn+2].S=C([S-])N(C)C.[S-]C(=S)N(C)C

>  <Rat_Female_NTP> (556)
ND

>  <CAS> (556)
137-30-4

>  <Mouse_Female_NTP> (556)
ND

>  <Synonyms> (556)
Aaprotect; aavolex; Fuklasin; Fungostop; hermat ZDM; Hexazir; Karbam White; Methasan; methazate; Methyl cymate; Methyl zimate; methyl zineb; methyl ziram; mexene; Mezene; Milam; Milbam; molurame; mycronil; orchard brand ziram; amyl zimate; Pomarsolz; pomarsol z forte; Prodaram; rhodiacid; soxinal pz; soxinol pz; (SP-4-1)-bis(dimethylcarbamodithioato-S,S')-zinc; (T-4)-bis(dimethylcarbamodithioato-S,S')-zinc; (T-4)-bis (dimethyldithiocarbamate-S,S )zinc; Triscabol; Tricarbamix Z; tsimat; Vancide; Vancide MZ-96; vulcacure; vulcacure ZM; vulkacite l; Z 75; zarlate; ZC; Z-C spray; Zerlate; Zimate; Zinc bis dimethyldithiocarbamate; zinc bis(dimethyldithiocarbamoyl)disulfide; Zinc bis(dimethylthiocarbamoyl) disulfide; Zincmate; zinc N,N-dimethyldithiocarbamate; Ziram; Ziram F4; Ziramvis; Ziram W76; zirasan; Zirasan 90; Zirberk; Zirex 90; Ziride; zirthane; Zitox; aazira; accelerator l; aceto ZDED; aceto ZDMD; alcobam ZM; antene; Bis(dimethylcarbamodithioato-S,S')zinc; Bis(dimethyldithiocarbamato)zinc; Bis(dimethylcarbamodithiato-S,S')-zinc; dimethyldithiocarbamate zinc salt; Dimethyldithiocarbamic Acid Zinc Salt; dimethylcarbamodithioic acid, zinc complex; carbamic acid, dimethyldithio-, zinc salt (2:1); Carbazinc; Ciram; corona corozate; Corozate; Cuman; cuman l; cymate; Drupina 90; eptac 1; Fuclasin; fuclasin ultra.

$$$$
557


 19 18  0  0  0  0  0  0  0  0999 V2000
    2.9133  -14.5027    0.1158 C   0  0  0  0  0  0  0  0  0  0  0  0
    4.1223  -13.6742    0.2091 N   0  0  0  0  0  0  0  0  0  0  0  0
    5.3866  -14.2891   -0.3256 C   0  0  0  0  0  0  0  0  0  0  0  0
    6.7137  -13.7230    0.2764 C   0  0  1  0  0  0  0  0  0  0  0  0
    7.9023  -14.5180   -0.2972 C   0  0  0  0  0  0  0  0  0  0  0  0
    9.1258  -14.0253    0.2605 O   0  0  0  0  0  0  0  0  0  0  0  0
    3.8652  -12.3214    0.0464 N   0  0  0  0  0  0  0  0  0  0  0  0
    6.8977  -12.3515   -0.0494 O   0  0  0  0  0  0  0  0  0  0  0  0
    4.6895  -11.5385   -0.2365 O   0  0  0  0  0  0  0  0  0  0  0  0
    2.1357  -14.0026    0.4967 H   0  0  0  0  0  0  0  0  0  0  0  0
    3.0486  -15.3496    0.6301 H   0  0  0  0  0  0  0  0  0  0  0  0
    2.7313  -14.7209   -0.8430 H   0  0  0  0  0  0  0  0  0  0  0  0
    5.3562  -15.2706   -0.1367 H   0  0  0  0  0  0  0  0  0  0  0  0
    5.4081  -14.1399   -1.3142 H   0  0  0  0  0  0  0  0  0  0  0  0
    6.6613  -13.8104    1.2712 H   0  0  0  0  0  0  0  0  0  0  0  0
    7.7975  -15.4853   -0.0664 H   0  0  0  0  0  0  0  0  0  0  0  0
    7.9239  -14.4124   -1.2914 H   0  0  0  0  0  0  0  0  0  0  0  0
    9.8954  -14.5429   -0.1134 H   0  0  0  0  0  0  0  0  0  0  0  0
    7.7538  -12.0252    0.3512 H   0  0  0  0  0  0  0  0  0  0  0  0
  1  2  1  0  0  0  0
  2  3  1  0  0  0  0
  3  4  1  0  0  0  0
  4  5  1  0  0  0  0
  5  6  1  0  0  0  0
  2  7  1  0  0  0  0
  4  8  1  0  0  0  0
  7  9  2  0  0  0  0
  1 10  1  0  0  0  0
  1 11  1  0  0  0  0
  1 12  1  0  0  0  0
  3 13  1  0  0  0  0
  3 14  1  0  0  0  0
  4 15  1  0  0  0  0
  5 16  1  0  0  0  0
  5 17  1  0  0  0  0
  6 18  1  0  0  0  0
  8 19  1  0  0  0  0
M  END
>  <Substance ID> (557)
557

>  <Mouse_Female_Canc> (557)
ND

>  <SAL> (557)
3

>  <Rat_Male_Canc> (557)
ND

>  <TD50_Rat> (557)
0.646

>  <TD50_Mouse> (557)
ND

>  <Rat_Female_Canc> (557)
3

>  <Canc> (557)
3

>  <MolWeight> (557)
134.13

>  <Mouse_Male_Canc> (557)
ND

>  <Mouse_Male_NTP> (557)
ND

>  <ChemName> (557)
N-nitroso(methyl)-2,3-dihydroxypropylamine

>  <Rat_Male_NTP> (557)
ND

>  <Reference> (557)
CPDB

>  <Formula> (557)
C4H10N2O3

>  <SMILES> (557)
N(CC(CO)O)(C)N=O

>  <Rat_Female_NTP> (557)
ND

>  <CAS> (557)
86451-37-8

>  <Mouse_Female_NTP> (557)
ND

>  <Synonyms> (557)
-

$$$$
558
 

 25 26  0  0  0  0  0  0  0  0999 V2000
    2.5825  -23.5799    0.1619 C   0  0  0  0  0  0  0  0  0  0  0  0
    2.6070  -24.9098    0.1129 C   0  0  0  0  0  0  0  0  0  0  0  0
    4.9830  -24.8708   -0.2102 C   0  0  0  0  0  0  0  0  0  0  0  0
    4.8929  -23.4079   -0.1494 C   0  0  0  0  0  0  0  0  0  0  0  0
    3.8750  -25.5914   -0.0846 C   0  0  0  0  0  0  0  0  0  0  0  0
    3.7683  -22.8335    0.0243 N   0  3  0  0  0  0  0  0  0  0  0  0
    3.7091  -21.5130    0.0737 O   0  5  0  0  0  0  0  0  0  0  0  0
    6.3098  -25.5690   -0.4201 C   0  0  2  0  0  0  0  0  0  0  0  0
    6.3863  -26.9449    0.2303 C   0  0  0  0  0  0  0  0  0  0  0  0
    7.8691  -27.2619   -0.0602 C   0  0  0  0  0  0  0  0  0  0  0  0
    8.5952  -25.8985    0.2303 C   0  0  0  0  0  0  0  0  0  0  0  0
    7.4816  -24.9298    0.1416 N   0  0  0  0  0  0  0  0  0  0  0  0
    7.7797  -23.6236   -0.1161 N   0  0  0  0  0  0  0  0  0  0  0  0
    8.8697  -23.2254    0.0622 O   0  0  0  0  0  0  0  0  0  0  0  0
    1.7126  -23.1058    0.2978 H   0  0  0  0  0  0  0  0  0  0  0  0
    1.7614  -25.4345    0.2111 H   0  0  0  0  0  0  0  0  0  0  0  0
    5.7214  -22.8562   -0.2450 H   0  0  0  0  0  0  0  0  0  0  0  0
    3.9125  -26.5899   -0.1255 H   0  0  0  0  0  0  0  0  0  0  0  0
    6.3277  -25.5686   -1.4199 H   0  0  0  0  0  0  0  0  0  0  0  0
    6.1954  -26.9077    1.2113 H   0  0  0  0  0  0  0  0  0  0  0  0
    5.7697  -27.6009   -0.2050 H   0  0  0  0  0  0  0  0  0  0  0  0
    7.9959  -27.5391   -1.0127 H   0  0  0  0  0  0  0  0  0  0  0  0
    8.2062  -27.9830    0.5450 H   0  0  0  0  0  0  0  0  0  0  0  0
    9.0083  -25.8942    1.1409 H   0  0  0  0  0  0  0  0  0  0  0  0
    9.2974  -25.7079   -0.4557 H   0  0  0  0  0  0  0  0  0  0  0  0
  1  2  2  0  0  0  0
  3  4  1  0  0  0  0
  1  6  1  0  0  0  0
  2  5  1  0  0  0  0
  5  3  2  0  0  0  0
  4  6  2  0  0  0  0
  6  7  1  0  0  0  0
  3  8  1  0  0  0  0
  8  9  1  0  0  0  0
 10 11  1  0  0  0  0
 11 12  1  0  0  0  0
 12  8  1  0  0  0  0
  9 10  1  0  0  0  0
 12 13  1  0  0  0  0
 13 14  2  0  0  0  0
  1 15  1  0  0  0  0
  2 16  1  0  0  0  0
  4 17  1  0  0  0  0
  5 18  1  0  0  0  0
  8 19  1  0  0  0  0
  9 20  1  0  0  0  0
  9 21  1  0  0  0  0
 10 22  1  0  0  0  0
 10 23  1  0  0  0  0
 11 24  1  0  0  0  0
 11 25  1  0  0  0  0
M  END
>  <Substance ID> (558)
558

>  <Mouse_Female_Canc> (558)
ND

>  <SAL> (558)
ND

>  <Rat_Male_Canc> (558)
3

>  <TD50_Rat> (558)
0.876

>  <TD50_Mouse> (558)
ND

>  <Rat_Female_Canc> (558)
3

>  <Canc> (558)
3

>  <MolWeight> (558)
193.20

>  <Mouse_Male_Canc> (558)
ND

>  <Mouse_Male_NTP> (558)
ND

>  <ChemName> (558)
N'-nitrosonornicotine-1-N-oxide

>  <Rat_Male_NTP> (558)
ND

>  <Reference> (558)
CPDB

>  <Formula> (558)
C9H11N3O2

>  <SMILES> (558)
C1=CC=C(C=[N+]1[O-])C2CCCN2N=O

>  <Rat_Female_NTP> (558)
ND

>  <CAS> (558)
78246-24-9

>  <Mouse_Female_NTP> (558)
ND

>  <Synonyms> (558)
-

$$$$
559


 15 15  0  0  0  0  0  0  0  0999 V2000
    2.9571  -34.5367   -0.1764 C   0  0  0  0  0  0  0  0  0  0  0  0
    3.4092  -35.9287    0.3110 C   0  0  0  0  0  0  0  0  0  0  0  0
    4.8218  -36.0004   -0.2816 C   0  0  0  0  0  0  0  0  0  0  0  0
    5.3916  -34.6337    0.1508 C   0  0  0  0  0  0  0  0  0  0  0  0
    4.2077  -33.7810   -0.0249 N   0  0  0  0  0  0  0  0  0  0  0  0
    4.2661  -32.4194   -0.0510 N   0  0  0  0  0  0  0  0  0  0  0  0
    5.3002  -31.8747    0.0734 O   0  0  0  0  0  0  0  0  0  0  0  0
    2.6530  -34.5600   -1.1288 H   0  0  0  0  0  0  0  0  0  0  0  0
    2.2284  -34.1634    0.3976 H   0  0  0  0  0  0  0  0  0  0  0  0
    3.4267  -35.9804    1.3095 H   0  0  0  0  0  0  0  0  0  0  0  0
    2.8220  -36.6530   -0.0505 H   0  0  0  0  0  0  0  0  0  0  0  0
    4.7981  -36.0899   -1.2773 H   0  0  0  0  0  0  0  0  0  0  0  0
    5.3459  -36.7570    0.1092 H   0  0  0  0  0  0  0  0  0  0  0  0
    5.6989  -34.6466    1.1023 H   0  0  0  0  0  0  0  0  0  0  0  0
    6.1452  -34.3448   -0.4395 H   0  0  0  0  0  0  0  0  0  0  0  0
  1  2  1  0  0  0  0
  3  4  1  0  0  0  0
  4  5  1  0  0  0  0
  5  1  1  0  0  0  0
  2  3  1  0  0  0  0
  5  6  1  0  0  0  0
  6  7  2  0  0  0  0
  1  8  1  0  0  0  0
  1  9  1  0  0  0  0
  2 10  1  0  0  0  0
  2 11  1  0  0  0  0
  3 12  1  0  0  0  0
  3 13  1  0  0  0  0
  4 14  1  0  0  0  0
  4 15  1  0  0  0  0
M  END
>  <Substance ID> (559)
559

>  <Mouse_Female_Canc> (559)
ND

>  <SAL> (559)
3

>  <Rat_Male_Canc> (559)
3

>  <TD50_Rat> (559)
0.799

>  <TD50_Mouse> (559)
0.679

>  <Rat_Female_Canc> (559)
3

>  <Canc> (559)
3

>  <MolWeight> (559)
100.12

>  <Mouse_Male_Canc> (559)
3

>  <Mouse_Male_NTP> (559)
ND

>  <ChemName> (559)
N-Nitrosopyrrolidine 

>  <Rat_Male_NTP> (559)
ND

>  <Reference> (559)
CPDB

>  <Formula> (559)
C4H8N2O

>  <SMILES> (559)
O=NN1CCCC1

>  <Rat_Female_NTP> (559)
ND

>  <CAS> (559)
930-55-2

>  <Mouse_Female_NTP> (559)
ND

>  <Synonyms> (559)
1-nitroso-Pyrrolidine; Nitrosopyrrolidine; N-N-PYR; No-pyr; NPYR; Pyrrole, tetrahydro-N-nitroso-.

$$$$
560


 17 16  0  0  0  0  0  0  0  0999 V2000
    2.3214  -43.7888   -0.3667 C   0  0  0  0  0  0  0  0  0  0  0  0
    3.4463  -43.8282    0.6830 C   0  0  0  0  0  0  0  0  0  0  0  0
    4.6797  -43.2989    0.0972 N   0  0  0  0  0  0  0  0  0  0  0  0
    5.9081  -43.4740    0.9350 C   0  0  0  0  0  0  0  0  0  0  0  0
    7.2511  -43.4777    0.1404 C   0  0  0  0  0  0  0  0  0  0  0  0
    4.4632  -42.0760   -0.5194 N   0  0  0  0  0  0  0  0  0  0  0  0
    5.3101  -41.2875   -0.7065 O   0  0  0  0  0  0  0  0  0  0  0  0
    7.2177  -44.4944   -0.7917 F   0  0  0  0  0  0  0  0  0  0  0  0
    7.4907  -42.2871   -0.4941 F   0  0  0  0  0  0  0  0  0  0  0  0
    8.2831  -43.7129    1.0259 F   0  0  0  0  0  0  0  0  0  0  0  0
    1.4790  -44.1502    0.0330 H   0  0  0  0  0  0  0  0  0  0  0  0
    2.5812  -44.3460   -1.1554 H   0  0  0  0  0  0  0  0  0  0  0  0
    2.1720  -42.8447   -0.6607 H   0  0  0  0  0  0  0  0  0  0  0  0
    3.1859  -43.2708    1.4714 H   0  0  0  0  0  0  0  0  0  0  0  0
    3.5953  -44.7725    0.9765 H   0  0  0  0  0  0  0  0  0  0  0  0
    5.9414  -42.7255    1.5973 H   0  0  0  0  0  0  0  0  0  0  0  0
    5.8317  -44.3454    1.4196 H   0  0  0  0  0  0  0  0  0  0  0  0
  1  2  1  0  0  0  0
  2  3  1  0  0  0  0
  3  4  1  0  0  0  0
  4  5  1  0  0  0  0
  3  6  1  0  0  0  0
  6  7  2  0  0  0  0
  5  8  1  0  0  0  0
  5  9  1  0  0  0  0
  5 10  1  0  0  0  0
  1 11  1  0  0  0  0
  1 12  1  0  0  0  0
  1 13  1  0  0  0  0
  2 14  1  0  0  0  0
  2 15  1  0  0  0  0
  4 16  1  0  0  0  0
  4 17  1  0  0  0  0
M  END
>  <Substance ID> (560)
560

>  <Mouse_Female_Canc> (560)
ND

>  <SAL> (560)
ND

>  <Rat_Male_Canc> (560)
3

>  <TD50_Rat> (560)
2.52

>  <TD50_Mouse> (560)
ND

>  <Rat_Female_Canc> (560)
ND

>  <Canc> (560)
3

>  <MolWeight> (560)
156.11

>  <Mouse_Male_Canc> (560)
ND

>  <Mouse_Male_NTP> (560)
ND

>  <ChemName> (560)
N-nitroso(2,2,2-trifluoroethyl)ethylamine

>  <Rat_Male_NTP> (560)
ND

>  <Reference> (560)
CPDB

>  <Formula> (560)
C4H7F3N2O

>  <SMILES> (560)
N(CC(F)(F)F)(CC)N=O

>  <Rat_Female_NTP> (560)
ND

>  <CAS> (560)
82018-90-4

>  <Mouse_Female_NTP> (560)
ND

>  <Synonyms> (560)
-

$$$$
561


 21 20  0  0  0  0  0  0  0  0999 V2000
    2.1617  -54.4248    0.0003 C   0  0  0  0  0  0  0  0  0  0  0  0
    3.4191  -53.5367    0.0006 C   0  0  0  0  0  0  0  0  0  0  0  0
    4.6750  -54.4263    0.0003 C   0  0  0  0  0  0  0  0  0  0  0  0
    5.9316  -53.5384    0.0005 C   0  0  0  0  0  0  0  0  0  0  0  0
    7.1871  -54.4281    0.0002 C   0  0  0  0  0  0  0  0  0  0  0  0
    8.3874  -53.5807    0.0003 N   0  0  0  0  0  0  0  0  0  0  0  0
    9.5295  -54.3896   -0.0000 N   0  0  0  0  0  0  0  0  0  0  0  0
    1.3452  -53.8474    0.0005 H   0  0  0  0  0  0  0  0  0  0  0  0
    2.1609  -55.0025    0.8166 H   0  0  0  0  0  0  0  0  0  0  0  0
    2.1609  -55.0021   -0.8162 H   0  0  0  0  0  0  0  0  0  0  0  0
    3.4195  -52.9594   -0.8160 H   0  0  0  0  0  0  0  0  0  0  0  0
    3.4195  -52.9598    0.8173 H   0  0  0  0  0  0  0  0  0  0  0  0
    4.6748  -55.0036    0.8169 H   0  0  0  0  0  0  0  0  0  0  0  0
    4.6747  -55.0033   -0.8164 H   0  0  0  0  0  0  0  0  0  0  0  0
    5.9320  -52.9610   -0.8160 H   0  0  0  0  0  0  0  0  0  0  0  0
    5.9321  -52.9614    0.8173 H   0  0  0  0  0  0  0  0  0  0  0  0
    7.1866  -55.0054    0.8167 H   0  0  0  0  0  0  0  0  0  0  0  0
    7.1865  -55.0050   -0.8166 H   0  0  0  0  0  0  0  0  0  0  0  0
    8.3878  -53.0034   -0.8162 H   0  0  0  0  0  0  0  0  0  0  0  0
   10.3467  -53.8134    0.0000 H   0  0  0  0  0  0  0  0  0  0  0  0
    9.5294  -54.9670   -0.8166 H   0  0  0  0  0  0  0  0  0  0  0  0
  1  2  1  0  0  0  0
  2  3  1  0  0  0  0
  3  4  1  0  0  0  0
  4  5  1  0  0  0  0
  5  6  1  0  0  0  0
  6  7  1  0  0  0  0
  1  8  1  0  0  0  0
  1  9  1  0  0  0  0
  1 10  1  0  0  0  0
  2 11  1  0  0  0  0
  2 12  1  0  0  0  0
  3 13  1  0  0  0  0
  3 14  1  0  0  0  0
  4 15  1  0  0  0  0
  4 16  1  0  0  0  0
  5 17  1  0  0  0  0
  5 18  1  0  0  0  0
  6 19  1  0  0  0  0
  7 20  1  0  0  0  0
  7 21  1  0  0  0  0
M  END
>  <Substance ID> (561)
561

>  <Mouse_Female_Canc> (561)
3

>  <SAL> (561)
ND

>  <Rat_Male_Canc> (561)
ND

>  <TD50_Rat> (561)
ND

>  <TD50_Mouse> (561)
5.87

>  <Rat_Female_Canc> (561)
ND

>  <Canc> (561)
3

>  <MolWeight> (561)
102.18

>  <Mouse_Male_Canc> (561)
1

>  <Mouse_Male_NTP> (561)
ND

>  <ChemName> (561)
n-Pentylhydrazine hydrochloride

>  <Rat_Male_NTP> (561)
ND

>  <Reference> (561)
CPDB

>  <Formula> (561)
C5H14N2

>  <SMILES> (561)
CCCCCNN

>  <Rat_Female_NTP> (561)
ND

>  <CAS> (561)
1119-68-2

>  <Mouse_Female_NTP> (561)
ND

>  <Synonyms> (561)
n-Amylhydrazine hydrochloride.

$$$$
562


 29 30  0  0  0  0  0  0  0  0999 V2000
    2.3001  -60.0536   -0.0249 C   0  0  0  0  0  0  0  0  0  0  0  0
    2.3445  -61.3781   -0.1504 C   0  0  0  0  0  0  0  0  0  0  0  0
    3.6360  -62.0660   -0.1610 C   0  0  0  0  0  0  0  0  0  0  0  0
    3.5432  -59.2940    0.1038 C   0  0  0  0  0  0  0  0  0  0  0  0
    4.7154  -59.9272    0.0906 C   0  0  0  0  0  0  0  0  0  0  0  0
    4.7659  -61.3694   -0.0478 C   0  0  0  0  0  0  0  0  0  0  0  0
    7.1230  -59.8017    0.1840 C   0  0  0  0  0  0  0  0  0  0  0  0
    5.9883  -62.0426   -0.0639 N   0  0  0  0  0  0  0  0  0  0  0  0
    5.9467  -59.1808    0.2209 C   0  0  0  0  0  0  0  0  0  0  0  0
    5.9455  -63.3967   -0.1593 N   0  0  0  0  0  0  0  0  0  0  0  0
    6.9091  -64.0700   -0.2154 O   0  0  0  0  0  0  0  0  0  0  0  0
    7.2701  -61.3013   -0.0013 C   0  0  0  0  0  0  0  0  0  0  0  0
    8.0562  -61.5349   -1.3108 C   0  0  0  0  0  0  0  0  0  0  0  0
    8.1716  -61.8384    1.1347 C   0  0  0  0  0  0  0  0  0  0  0  0
    5.9022  -57.6910    0.4008 C   0  0  0  0  0  0  0  0  0  0  0  0
    1.4196  -59.5796   -0.0185 H   0  0  0  0  0  0  0  0  0  0  0  0
    1.4971  -61.9018   -0.2374 H   0  0  0  0  0  0  0  0  0  0  0  0
    3.6705  -63.0611   -0.2533 H   0  0  0  0  0  0  0  0  0  0  0  0
    3.5134  -58.2993    0.2016 H   0  0  0  0  0  0  0  0  0  0  0  0
    7.9527  -59.2523    0.2834 H   0  0  0  0  0  0  0  0  0  0  0  0
    8.1699  -62.5169   -1.4613 H   0  0  0  0  0  0  0  0  0  0  0  0
    8.9553  -61.1025   -1.2421 H   0  0  0  0  0  0  0  0  0  0  0  0
    7.5529  -61.1368   -2.0778 H   0  0  0  0  0  0  0  0  0  0  0  0
    8.2832  -62.8270    1.0332 H   0  0  0  0  0  0  0  0  0  0  0  0
    7.7483  -61.6403    2.0187 H   0  0  0  0  0  0  0  0  0  0  0  0
    9.0672  -61.3959    1.0877 H   0  0  0  0  0  0  0  0  0  0  0  0
    6.8340  -57.3356    0.4739 H   0  0  0  0  0  0  0  0  0  0  0  0
    5.3955  -57.4704    1.2342 H   0  0  0  0  0  0  0  0  0  0  0  0
    5.4474  -57.2732   -0.3858 H   0  0  0  0  0  0  0  0  0  0  0  0
  1  2  2  0  0  0  0
  1  4  1  0  0  0  0
  2  3  1  0  0  0  0
  3  6  2  0  0  0  0
  5  4  2  0  0  0  0
  5  6  1  0  0  0  0
 12  7  1  0  0  0  0
  5  9  1  0  0  0  0
  6  8  1  0  0  0  0
  7  9  2  0  0  0  0
  8 10  1  0  0  0  0
 10 11  2  0  0  0  0
  8 12  1  0  0  0  0
 12 13  1  0  0  0  0
 12 14  1  0  0  0  0
  9 15  1  0  0  0  0
  1 16  1  0  0  0  0
  2 17  1  0  0  0  0
  3 18  1  0  0  0  0
  4 19  1  0  0  0  0
  7 20  1  0  0  0  0
 13 21  1  0  0  0  0
 13 22  1  0  0  0  0
 13 23  1  0  0  0  0
 14 24  1  0  0  0  0
 14 25  1  0  0  0  0
 14 26  1  0  0  0  0
 15 27  1  0  0  0  0
 15 28  1  0  0  0  0
 15 29  1  0  0  0  0
M  END
>  <Substance ID> (562)
562

>  <Mouse_Female_Canc> (562)
ND

>  <SAL> (562)
ND

>  <Rat_Male_Canc> (562)
3

>  <TD50_Rat> (562)
3.31

>  <TD50_Mouse> (562)
ND

>  <Rat_Female_Canc> (562)
ND

>  <Canc> (562)
3

>  <MolWeight> (562)
202.26

>  <Mouse_Male_Canc> (562)
ND

>  <Mouse_Male_NTP> (562)
ND

>  <ChemName> (562)
N-nitroso-2,2,4-trimethyl-1,2-dihydroquinoline polymer

>  <Rat_Male_NTP> (562)
ND

>  <Reference> (562)
CPDB

>  <Formula> (562)
C12H14N2O

>  <SMILES> (562)
C1=CC=C2C(=C1)N(C(\C=C/2C)(C)C)N=O

>  <Rat_Female_NTP> (562)
ND

>  <CAS> (562)
29929-77-9

>  <Mouse_Female_NTP> (562)
ND

>  <Synonyms> (562)
-

$$$$
563
 

 54 56  0  0  0  0  0  0  0  0999 V2000
   -0.0188    1.5379    0.0105 C   0  0  3  0  0  0  0  0  0  1  0  0
    0.0021   -0.0041    0.0020 C   0  0  3  0  0  0  0  0  0  2  0  0
    1.1885    0.7869   -0.0051 O   0  0  0  0  0  0  0  0  0  3  0  0
   -0.4634    2.1959   -1.2746 C   0  0  0  0  0  0  0  0  0  4  0  0
   -0.5238    2.1868    1.2940 C   0  0  0  0  0  0  0  0  0  5  0  0
   -0.4025   -0.7194   -1.2849 C   0  0  0  0  0  0  0  0  0  6  0  0
    0.2893    2.0850   -2.3746 O   0  0  0  0  0  0  0  0  0  7  0  0
   -1.5040    2.8082   -1.2960 O   0  0  0  0  0  0  0  0  0  8  0  0
    0.4025    3.2232    1.8874 C   0  0  3  0  0  0  0  0  0  9  0  0
   -0.0460    2.8231   -3.5853 C   0  0  3  0  0  0  0  0  0 10  0  0
    0.2645    4.6165    1.3048 C   0  0  3  0  0  0  0  0  0 11  0  0
    1.8600    2.7683    1.9032 C   0  0  0  0  0  0  0  0  0 12  0  0
   -0.1043    4.2568   -3.2534 C   0  0  0  0  0  0  0  0  0 13  0  0
    0.9958    2.4781   -4.6378 C   0  0  0  0  0  0  0  0  0 14  0  0
    0.6925    4.7369   -0.1287 C   0  0  0  0  0  0  0  0  0 15  0  0
   -1.1805    5.1133    1.4452 C   0  0  0  0  0  0  0  0  0 16  0  0
    1.0973    5.5066    2.0807 O   0  0  0  0  0  0  0  0  0 17  0  0
    0.9672    5.2018   -3.1339 C   0  0  0  0  0  0  0  0  0 18  0  0
   -1.2260    4.7061   -3.0617 O   0  0  0  0  0  0  0  0  0 19  0  0
    2.3671    2.7361   -4.0080 C   0  0  0  0  0  0  0  0  0 20  0  0
    0.1585    5.7052   -0.8918 O   0  0  0  0  0  0  0  0  0 21  0  0
    1.5092    3.9958   -0.6175 O   0  0  0  0  0  0  0  0  0 22  0  0
    0.8294    6.2615   -2.0410 C   0  0  0  0  0  0  0  0  0 23  0  0
    2.0412    5.3564   -3.8951 C   0  0  0  0  0  0  0  0  0 24  0  0
    3.1246    3.4063   -5.0979 N   0  0  3  0  0  0  0  0  0 25  0  0
    2.3793    4.6856   -5.1706 C   0  0  0  0  0  0  0  0  0 26  0  0
    4.4047    3.7917   -4.4335 C   0  0  0  0  0  0  0  0  0 27  0  0
   -1.0201    2.4736   -3.9241 H   0  0  0  0  0  0  0  0  0 28  0  0
   -0.2678   -0.5090    0.9306 H   0  0  0  0  0  0  0  0  0 29  0  0
   -1.5217    2.5970    1.1119 H   0  0  0  0  0  0  0  0  0 30  0  0
   -0.6633    1.3794    2.0399 H   0  0  0  0  0  0  0  0  0 31  0  0
    0.2677   -0.4227   -2.0916 H   0  0  0  0  0  0  0  0  0 32  0  0
   -0.3382   -1.7974   -1.1369 H   0  0  0  0  0  0  0  0  0 33  0  0
   -1.4259   -0.4487   -1.5447 H   0  0  0  0  0  0  0  0  0 34  0  0
    0.1121    3.3135    2.9677 H   0  0  0  0  0  0  0  0  0 35  0  0
    2.1897    2.5697    0.8834 H   0  0  0  0  0  0  0  0  0 36  0  0
    2.4803    3.5511    2.3396 H   0  0  0  0  0  0  0  0  0 37  0  0
    1.9504    1.8592    2.4978 H   0  0  0  0  0  0  0  0  0 38  0  0
    0.9036    1.4134   -4.8865 H   0  0  0  0  0  0  0  0  0 39  0  0
    0.8417    3.0590   -5.5349 H   0  0  0  0  0  0  0  0  0 40  0  0
   -1.4546    5.1405    2.4998 H   0  0  0  0  0  0  0  0  0 41  0  0
   -1.2631    6.1145    1.0224 H   0  0  0  0  0  0  0  0  0 42  0  0
   -1.8503    4.4378    0.9130 H   0  0  0  0  0  0  0  0  0 43  0  0
    0.9975    6.3884    1.6965 H   0  0  0  0  0  0  0  0  0 44  0  0
    2.3068    3.3599   -3.1254 H   0  0  0  0  0  0  0  0  0 45  0  0
    2.8537    1.7866   -3.7576 H   0  0  0  0  0  0  0  0  0 46  0  0
    1.8224    6.6200   -1.7607 H   0  0  0  0  0  0  0  0  0 47  0  0
    0.2501    7.1023   -2.4375 H   0  0  0  0  0  0  0  0  0 48  0  0
    2.7636    6.0835   -3.5226 H   0  0  0  0  0  0  0  0  0 49  0  0
    1.4812    4.5550   -5.7673 H   0  0  0  0  0  0  0  0  0 50  0  0
    3.0223    5.3791   -5.7429 H   0  0  0  0  0  0  0  0  0 51  0  0
    4.9063    2.8970   -4.0647 H   0  0  0  0  0  0  0  0  0 52  0  0
    5.0485    4.2993   -5.1518 H   0  0  0  0  0  0  0  0  0 53  0  0
    4.1938    4.4601   -3.5987 H   0  0  0  0  0  0  0  0  0 54  0  0
  1  2  1  0  0  0  0
  1  3  1  0  0  0  0
  1  4  1  0  0  0  0
  1  5  1  0  0  0  0
  2  6  1  0  0  0  0
  2  3  1  0  0  0  0
  2 29  1  0  0  0  0
  4  7  1  0  0  0  0
  4  8  2  0  0  0  0
  5  9  1  0  0  0  0
  5 30  1  0  0  0  0
  5 31  1  0  0  0  0
  6 32  1  0  0  0  0
  6 33  1  0  0  0  0
  6 34  1  0  0  0  0
  7 10  1  0  0  0  0
  9 11  1  0  0  0  0
  9 12  1  0  0  0  0
  9 35  1  0  0  0  0
 10 13  1  0  0  0  0
 10 14  1  0  0  0  0
 10 28  1  0  0  0  0
 11 15  1  0  0  0  0
 11 16  1  0  0  0  0
 11 17  1  0  0  0  0
 12 36  1  0  0  0  0
 12 37  1  0  0  0  0
 12 38  1  0  0  0  0
 13 18  1  0  0  0  0
 13 19  2  0  0  0  0
 14 20  1  0  0  0  0
 14 39  1  0  0  0  0
 14 40  1  0  0  0  0
 15 21  1  0  0  0  0
 15 22  2  0  0  0  0
 16 41  1  0  0  0  0
 16 42  1  0  0  0  0
 16 43  1  0  0  0  0
 17 44  1  0  0  0  0
 18 23  1  0  0  0  0
 18 24  2  0  0  0  0
 20 25  1  0  0  0  0
 20 45  1  0  0  0  0
 20 46  1  0  0  0  0
 21 23  1  0  0  0  0
 23 47  1  0  0  0  0
 23 48  1  0  0  0  0
 24 26  1  0  0  0  0
 24 49  1  0  0  0  0
 25 27  1  0  0  0  0
 25 26  1  0  0  0  0
 26 50  1  0  0  0  0
 26 51  1  0  0  0  0
 27 52  1  0  0  0  0
 27 53  1  0  0  0  0
 27 54  1  0  0  0  0
M  END
>  <Substance ID> (563)
563

>  <Mouse_Female_Canc> (563)
ND

>  <SAL> (563)
ND

>  <Rat_Male_Canc> (563)
3

>  <TD50_Rat> (563)
0.922

>  <TD50_Mouse> (563)
ND

>  <Rat_Female_Canc> (563)
3

>  <Canc> (563)
3

>  <MolWeight> (563)
381.42

>  <Mouse_Male_Canc> (563)
ND

>  <Mouse_Male_NTP> (563)
ND

>  <ChemName> (563)
Petasitenine

>  <Rat_Male_NTP> (563)
ND

>  <Reference> (563)
CPDB

>  <Formula> (563)
C19H27NO7

>  <SMILES> (563)
C[CH]1C[C]2(O[CH]2C)C(=O)O[CH]3CCN(C)CC=C(COC(=O)[C]1(C)O)C3=O

>  <Rat_Female_NTP> (563)
ND

>  <CAS> (563)
60102-37-6

>  <Mouse_Female_NTP> (563)
ND

>  <Synonyms> (563)
-

$$$$
564


 15 15  0  0  0  0  0  0  0  0999 V2000
    2.3944  -79.5190   -0.3107 C   0  0  0  0  0  0  0  0  0  0  0  0
    2.3216  -80.9501    0.2673 C   0  0  0  0  0  0  0  0  0  0  0  0
    3.5838  -81.7207    0.0357 C   0  0  0  0  0  0  0  0  0  0  0  0
    4.8254  -81.0285   -0.0749 N   0  0  0  0  0  0  0  0  0  0  0  0
    4.8583  -79.5973   -0.0550 C   0  0  0  0  0  0  0  0  0  0  0  0
    3.6528  -78.8550   -0.0711 N   0  0  0  0  0  0  0  0  0  0  0  0
    5.9513  -79.0187   -0.0524 O   0  0  0  0  0  0  0  0  0  0  0  0
    3.5590  -82.9589    0.0253 O   0  0  0  0  0  0  0  0  0  0  0  0
    3.6636  -77.5189    0.0317 N   0  0  0  0  0  0  0  0  0  0  0  0
    4.6638  -76.9265    0.2018 O   0  0  0  0  0  0  0  0  0  0  0  0
    2.2490  -79.5709   -1.2988 H   0  0  0  0  0  0  0  0  0  0  0  0
    1.6667  -78.9740    0.1056 H   0  0  0  0  0  0  0  0  0  0  0  0
    2.1568  -80.8912    1.2519 H   0  0  0  0  0  0  0  0  0  0  0  0
    1.5640  -81.4352   -0.1695 H   0  0  0  0  0  0  0  0  0  0  0  0
    5.6768  -81.5449   -0.1667 H   0  0  0  0  0  0  0  0  0  0  0  0
  1  2  1  0  0  0  0
  1  6  1  0  0  0  0
  2  3  1  0  0  0  0
  3  4  1  0  0  0  0
  4  5  1  0  0  0  0
  5  6  1  0  0  0  0
  5  7  2  0  0  0  0
  3  8  2  0  0  0  0
  6  9  1  0  0  0  0
  9 10  2  0  0  0  0
  1 11  1  0  0  0  0
  1 12  1  0  0  0  0
  2 13  1  0  0  0  0
  2 14  1  0  0  0  0
  4 15  1  0  0  0  0
M  END
>  <Substance ID> (564)
564

>  <Mouse_Female_Canc> (564)
ND

>  <SAL> (564)
3

>  <Rat_Male_Canc> (564)
3

>  <TD50_Rat> (564)
0.0983

>  <TD50_Mouse> (564)
ND

>  <Rat_Female_Canc> (564)
3

>  <Canc> (564)
3

>  <MolWeight> (564)
143.10

>  <Mouse_Male_Canc> (564)
ND

>  <Mouse_Male_NTP> (564)
ND

>  <ChemName> (564)
1-Nitroso-5,6-dihydrouracil

>  <Rat_Male_NTP> (564)
ND

>  <Reference> (564)
CPDB

>  <Formula> (564)
C4H5N3O3

>  <SMILES> (564)
O=NN1CCC(=O)NC1=O

>  <Rat_Female_NTP> (564)
ND

>  <CAS> (564)
16813-36-8

>  <Mouse_Female_NTP> (564)
ND

>  <Synonyms> (564)
-

$$$$
565


 26 26  0  0  0  0  0  0  0  0999 V2000
    6.5601  -92.3316   -0.0032 C   0  0  0  0  0  0  0  0  0  0  0  0
    7.8902  -92.3266   -0.0124 C   0  0  0  0  0  0  0  0  0  0  0  0
    7.9364  -89.9149   -0.0180 C   0  0  0  0  0  0  0  0  0  0  0  0
    6.4810  -89.9156   -0.0092 C   0  0  0  0  0  0  0  0  0  0  0  0
    8.6169  -91.0621   -0.0185 C   0  0  0  0  0  0  0  0  0  0  0  0
    5.8192  -91.0722   -0.0008 C   0  0  0  0  0  0  0  0  0  0  0  0
    4.4194  -91.1066    0.0101 O   0  0  0  0  0  0  0  0  0  0  0  0
    3.8533  -89.7907    0.0098 C   0  0  0  0  0  0  0  0  0  0  0  0
    2.3198  -89.9069    0.0182 C   0  0  0  0  0  0  0  0  0  0  0  0
   10.0310  -91.0894   -0.0222 N   0  0  0  0  0  0  0  0  0  0  0  0
   10.8398  -89.9290    0.0058 C   0  0  0  0  0  0  0  0  0  0  0  0
   12.3292  -90.0757   -0.0034 C   0  0  0  0  0  0  0  0  0  0  0  0
   10.3498  -88.7951    0.0427 O   0  0  0  0  0  0  0  0  0  0  0  0
    6.0653  -93.2006    0.0021 H   0  0  0  0  0  0  0  0  0  0  0  0
    8.3927  -93.1911   -0.0152 H   0  0  0  0  0  0  0  0  0  0  0  0
    8.4311  -89.0458   -0.0237 H   0  0  0  0  0  0  0  0  0  0  0  0
    5.9791  -89.0506   -0.0095 H   0  0  0  0  0  0  0  0  0  0  0  0
    4.1566  -89.2950    0.8236 H   0  0  0  0  0  0  0  0  0  0  0  0
    4.1479  -89.2991   -0.8096 H   0  0  0  0  0  0  0  0  0  0  0  0
    1.9158  -88.9922    0.0181 H   0  0  0  0  0  0  0  0  0  0  0  0
    2.0269  -90.4000    0.8374 H   0  0  0  0  0  0  0  0  0  0  0  0
    2.0182  -90.4041   -0.7954 H   0  0  0  0  0  0  0  0  0  0  0  0
   10.4852  -91.9800   -0.0461 H   0  0  0  0  0  0  0  0  0  0  0  0
   12.7539  -89.1707    0.0192 H   0  0  0  0  0  0  0  0  0  0  0  0
   12.6122  -90.5555   -0.8339 H   0  0  0  0  0  0  0  0  0  0  0  0
   12.6180  -90.5991    0.7983 H   0  0  0  0  0  0  0  0  0  0  0  0
  1  2  2  0  0  0  0
  3  4  1  0  0  0  0
  1  6  1  0  0  0  0
  2  5  1  0  0  0  0
  5  3  2  0  0  0  0
  4  6  2  0  0  0  0
  6  7  1  0  0  0  0
  7  8  1  0  0  0  0
  8  9  1  0  0  0  0
  5 10  1  0  0  0  0
 10 11  1  0  0  0  0
 11 12  1  0  0  0  0
 11 13  2  0  0  0  0
  1 14  1  0  0  0  0
  2 15  1  0  0  0  0
  3 16  1  0  0  0  0
  4 17  1  0  0  0  0
  8 18  1  0  0  0  0
  8 19  1  0  0  0  0
  9 20  1  0  0  0  0
  9 21  1  0  0  0  0
  9 22  1  0  0  0  0
 10 23  1  0  0  0  0
 12 24  1  0  0  0  0
 12 25  1  0  0  0  0
 12 26  1  0  0  0  0
M  END
>  <Substance ID> (565)
565

>  <Mouse_Female_Canc> (565)
3

>  <SAL> (565)
3

>  <Rat_Male_Canc> (565)
3

>  <TD50_Rat> (565)
1250

>  <TD50_Mouse> (565)
2140

>  <Rat_Female_Canc> (565)
3

>  <Canc> (565)
3

>  <MolWeight> (565)
179.22

>  <Mouse_Male_Canc> (565)
3

>  <Mouse_Male_NTP> (565)
ND

>  <ChemName> (565)
Phenacetin

>  <Rat_Male_NTP> (565)
ND

>  <Reference> (565)
CPDB

>  <Formula> (565)
C10H13NO2

>  <SMILES> (565)
CC(=O)NC1=CC=C(C=C1)OCC

>  <Rat_Female_NTP> (565)
ND

>  <CAS> (565)
62-44-2

>  <Mouse_Female_NTP> (565)
ND

>  <Synonyms> (565)
1-acetamido-4-ethoxybenzene; para-Acetophenetidide; p-acetophenetidine; p-acetophenetide; p-acetphenetidin; paracetophentidin; p-Ethoxyacetanilide; 4'-ethoxyacetanilide; Para-phenacetin; acet-p-phenalide; acet-p-phenetidin; aceto-para-phenalide; aceto-para-phenetidide; Acetophenetidine; acetophenetin; acetylphenetidin; coricidin; empirin compound; N-(4-ethoxyphenyl)-acetamide; N-Acetyl-4-ethoxyaniline; N-acetyl-p-phenetidine; phenacet; phenacitin; phenazetin; Phorazetim; pyraphen.

$$$$
566


 18 18  0  0  0  0  0  0  0  0999 V2000
   39.6047   -3.9188    0.0005 C   0  0  0  0  0  0  0  0  0  0  0  0
   40.2572   -2.7585   -0.0002 C   0  0  0  0  0  0  0  0  0  0  0  0
   38.1786   -1.5163   -0.0006 C   0  0  0  0  0  0  0  0  0  0  0  0
   37.4627   -2.7917   -0.0005 C   0  0  0  0  0  0  0  0  0  0  0  0
   39.5105   -1.4989   -0.0003 C   0  0  0  0  0  0  0  0  0  0  0  0
   38.1426   -3.9374   -0.0007 C   0  0  0  0  0  0  0  0  0  0  0  0
   41.6538   -2.7435   -0.0005 N   0  0  0  0  0  0  0  0  0  0  0  0
   42.3827   -3.9783   -0.0003 C   0  0  0  0  0  0  0  0  0  0  0  0
   42.3078   -1.5852   -0.0000 N   0  0  0  0  0  0  0  0  0  0  0  0
   36.1207   -2.8084   -0.0002 F   0  0  0  0  0  0  0  0  0  0  0  0
   43.4844   -1.5751   -0.0001 O   0  0  0  0  0  0  0  0  0  0  0  0
   40.1150   -4.7788    0.0018 H   0  0  0  0  0  0  0  0  0  0  0  0
   37.6677   -0.6567   -0.0009 H   0  0  0  0  0  0  0  0  0  0  0  0
   39.9998   -0.6268   -0.0002 H   0  0  0  0  0  0  0  0  0  0  0  0
   37.6534   -4.8095   -0.0015 H   0  0  0  0  0  0  0  0  0  0  0  0
   43.3641   -3.7865   -0.0005 H   0  0  0  0  0  0  0  0  0  0  0  0
   42.1464   -4.5056   -0.8165 H   0  0  0  0  0  0  0  0  0  0  0  0
   42.1468   -4.5051    0.8163 H   0  0  0  0  0  0  0  0  0  0  0  0
  1  2  2  0  0  0  0
  3  4  1  0  0  0  0
  1  6  1  0  0  0  0
  2  5  1  0  0  0  0
  5  3  2  0  0  0  0
  4  6  2  0  0  0  0
  2  7  1  0  0  0  0
  7  8  1  0  0  0  0
  7  9  1  0  0  0  0
  4 10  1  0  0  0  0
  9 11  2  0  0  0  0
  1 12  1  0  0  0  0
  3 13  1  0  0  0  0
  5 14  1  0  0  0  0
  6 15  1  0  0  0  0
  8 16  1  0  0  0  0
  8 17  1  0  0  0  0
  8 18  1  0  0  0  0
M  END
>  <Substance ID> (566)
566

>  <Mouse_Female_Canc> (566)
ND

>  <SAL> (566)
ND

>  <Rat_Male_Canc> (566)
3

>  <TD50_Rat> (566)
0.255

>  <TD50_Mouse> (566)
ND

>  <Rat_Female_Canc> (566)
ND

>  <Canc> (566)
3

>  <MolWeight> (566)
154.14

>  <Mouse_Male_Canc> (566)
ND

>  <Mouse_Male_NTP> (566)
ND

>  <ChemName> (566)
N-nitroso-N-methyl-4-fluoroaniline

>  <Rat_Male_NTP> (566)
ND

>  <Reference> (566)
CPDB

>  <Formula> (566)
C7H7FN2O

>  <SMILES> (566)
C1=CC(=CC=C1N(N=O)C)F

>  <Rat_Female_NTP> (566)
ND

>  <CAS> (566)
937-25-7

>  <Mouse_Female_NTP> (566)
ND

>  <Synonyms> (566)
-

$$$$
567


 26 27  0  0  0  0  0  0  0  0999 V2000
   42.9462  -13.6013   -0.0004 C   0  0  0  0  0  0  0  0  0  0  0  0
   43.4048  -14.9788    0.0006 C   0  0  0  0  0  0  0  0  0  0  0  0
   44.7358  -14.9049   -0.0027 C   0  0  0  0  0  0  0  0  0  0  0  0
   45.1688  -13.5800   -0.0042 N   0  0  0  0  0  0  0  0  0  0  0  0
   44.0654  -12.7531   -0.0024 N   0  0  0  0  0  0  0  0  0  0  0  0
   45.6594  -16.0806    0.0026 C   0  0  0  0  0  0  0  0  0  0  0  0
   41.7579  -13.2595    0.0041 O   0  0  0  0  0  0  0  0  0  0  0  0
   46.5790  -13.2377   -0.0082 C   0  0  0  0  0  0  0  0  0  0  0  0
   44.0001  -11.3050   -0.0014 C   0  0  0  0  0  0  0  0  0  0  0  0
   45.2073  -10.4631    0.0083 C   0  0  0  0  0  0  0  0  0  0  0  0
   45.1256   -9.1399    0.0121 C   0  0  0  0  0  0  0  0  0  0  0  0
   43.8237   -8.5000    0.0055 C   0  0  0  0  0  0  0  0  0  0  0  0
   42.7193   -9.2422   -0.0045 C   0  0  0  0  0  0  0  0  0  0  0  0
   42.8114  -10.7015   -0.0077 C   0  0  0  0  0  0  0  0  0  0  0  0
   42.8427  -15.8058    0.0031 H   0  0  0  0  0  0  0  0  0  0  0  0
   45.1244  -16.9254    0.0027 H   0  0  0  0  0  0  0  0  0  0  0  0
   46.2337  -16.0502    0.8207 H   0  0  0  0  0  0  0  0  0  0  0  0
   46.2387  -16.0537   -0.8121 H   0  0  0  0  0  0  0  0  0  0  0  0
   46.6811  -12.2430   -0.0087 H   0  0  0  0  0  0  0  0  0  0  0  0
   47.0122  -13.6171   -0.8258 H   0  0  0  0  0  0  0  0  0  0  0  0
   47.0169  -13.6168    0.8070 H   0  0  0  0  0  0  0  0  0  0  0  0
   46.1077  -10.8981    0.0122 H   0  0  0  0  0  0  0  0  0  0  0  0
   45.9577   -8.5854    0.0194 H   0  0  0  0  0  0  0  0  0  0  0  0
   43.7564   -7.5022    0.0085 H   0  0  0  0  0  0  0  0  0  0  0  0
   41.8224   -8.8000   -0.0098 H   0  0  0  0  0  0  0  0  0  0  0  0
   41.9761  -11.2512   -0.0147 H   0  0  0  0  0  0  0  0  0  0  0  0
  1  2  1  0  0  0  0
  3  4  1  0  0  0  0
  4  5  1  0  0  0  0
  5  1  1  0  0  0  0
  2  3  2  0  0  0  0
  3  6  1  0  0  0  0
  1  7  2  0  0  0  0
  4  8  1  0  0  0  0
  5  9  1  0  0  0  0
  9 10  1  0  0  0  0
  9 14  2  0  0  0  0
 10 11  2  0  0  0  0
 11 12  1  0  0  0  0
 12 13  2  0  0  0  0
 13 14  1  0  0  0  0
  2 15  1  0  0  0  0
  6 16  1  0  0  0  0
  6 17  1  0  0  0  0
  6 18  1  0  0  0  0
  8 19  1  0  0  0  0
  8 20  1  0  0  0  0
  8 21  1  0  0  0  0
 10 22  1  0  0  0  0
 11 23  1  0  0  0  0
 12 24  1  0  0  0  0
 13 25  1  0  0  0  0
 14 26  1  0  0  0  0
M  END
>  <Substance ID> (567)
567

>  <Mouse_Female_Canc> (567)
ND

>  <SAL> (567)
1

>  <Rat_Male_Canc> (567)
3

>  <TD50_Rat> (567)
1230

>  <TD50_Mouse> (567)
ND

>  <Rat_Female_Canc> (567)
ND

>  <Canc> (567)
3

>  <MolWeight> (567)
188.23

>  <Mouse_Male_Canc> (567)
ND

>  <Mouse_Male_NTP> (567)
ND

>  <ChemName> (567)
Phenazone

>  <Rat_Male_NTP> (567)
ND

>  <Reference> (567)
CPDB

>  <Formula> (567)
C11H12N2O

>  <SMILES> (567)
CN1N(C2=CC=CC=C2)C(=O)C=C1C

>  <Rat_Female_NTP> (567)
ND

>  <CAS> (567)
60-80-0

>  <Mouse_Female_NTP> (567)
ND

>  <Synonyms> (567)
1,2-Dihydro-1,5-dimethyl-2-phenyl-3H-pyrazol-3-one; 2,3-Dimethyl-1-phenyl-3-pyrazolin-5-one; Antipyrine; ANTIPYRINE CRYSTALLINE.

$$$$
568
 

 36 40  0  0  0  0  0  0  0  0999 V2000
   27.0690  -20.0929    0.0808 O   0  0  0  0  0  0  0  0  0  0  0  0
   26.3298  -18.9748   -0.5637 C   0  0  2  0  0  0  0  0  0  0  0  0
   26.9722  -17.7946    0.0294 C   0  0  2  0  0  0  0  0  0  0  0  0
   26.3273  -17.9828    1.3599 C   0  0  0  0  0  0  0  0  0  0  0  0
   25.1262  -18.5487    1.1690 C   0  0  0  0  0  0  0  0  0  0  0  0
   24.9535  -18.9435   -0.1903 O   0  0  0  0  0  0  0  0  0  0  0  0
   28.3672  -18.2236   -0.0086 C   0  0  0  0  0  0  0  0  0  0  0  0
   28.3891  -19.5288    0.0897 C   0  0  0  0  0  0  0  0  0  0  0  0
   29.6142  -20.2497    0.2319 C   0  0  0  0  0  0  0  0  0  0  0  0
   30.7889  -19.6110    0.2229 C   0  0  0  0  0  0  0  0  0  0  0  0
   29.5584  -17.3957   -0.0412 C   0  0  0  0  0  0  0  0  0  0  0  0
   30.7672  -17.9994    0.0423 C   0  0  0  0  0  0  0  0  0  0  0  0
   31.9597  -17.0934   -0.0304 C   0  0  0  0  0  0  0  0  0  0  0  0
   29.3708  -15.9798   -0.1540 O   0  0  0  0  0  0  0  0  0  0  0  0
   30.5342  -15.1652   -0.1632 C   0  0  0  0  0  0  0  0  0  0  0  0
   31.7640  -15.6726   -0.1075 C   0  0  0  0  0  0  0  0  0  0  0  0
   32.9409  -14.7707   -0.1182 C   0  0  0  0  0  0  0  0  0  0  0  0
   32.7689  -13.4543   -0.1771 C   0  0  0  0  0  0  0  0  0  0  0  0
   31.4237  -12.8984   -0.2369 C   0  0  0  0  0  0  0  0  0  0  0  0
   30.3653  -13.7072   -0.2354 C   0  0  0  0  0  0  0  0  0  0  0  0
   31.9154  -20.5476    0.4173 O   0  0  0  0  0  0  0  0  0  0  0  0
   33.2649  -20.1128    0.5065 C   0  0  0  0  0  0  0  0  0  0  0  0
   34.2368  -15.2849   -0.0619 O   0  0  0  0  0  0  0  0  0  0  0  0
   33.1151  -17.5085   -0.0406 O   0  0  0  0  0  0  0  0  0  0  0  0
   26.7074  -16.8126   -0.3892 H   0  0  0  0  0  0  0  0  0  0  0  0
   26.5281  -19.0397   -1.6423 H   0  0  0  0  0  0  0  0  0  0  0  0
   26.7222  -17.7304    2.2433 H   0  0  0  0  0  0  0  0  0  0  0  0
   24.4413  -18.6769    1.8862 H   0  0  0  0  0  0  0  0  0  0  0  0
   29.5930  -21.2436    0.3395 H   0  0  0  0  0  0  0  0  0  0  0  0
   33.5624  -12.8457   -0.1804 H   0  0  0  0  0  0  0  0  0  0  0  0
   31.2946  -11.9077   -0.2793 H   0  0  0  0  0  0  0  0  0  0  0  0
   29.4455  -13.3179   -0.2838 H   0  0  0  0  0  0  0  0  0  0  0  0
   33.8626  -20.9038    0.6368 H   0  0  0  0  0  0  0  0  0  0  0  0
   33.3642  -19.4894    1.2821 H   0  0  0  0  0  0  0  0  0  0  0  0
   33.5193  -19.6387   -0.3364 H   0  0  0  0  0  0  0  0  0  0  0  0
   34.8954  -14.5326   -0.0791 H   0  0  0  0  0  0  0  0  0  0  0  0
  2  1  1  0  0  0  0
  1  8  1  0  0  0  0
  7  3  1  0  0  0  0
  2  3  1  0  0  0  0
  4  5  2  0  0  0  0
  5  6  1  0  0  0  0
  6  2  1  0  0  0  0
  3  4  1  0  0  0  0
  7  8  2  0  0  0  0
  8  9  1  0  0  0  0
  9 10  2  0  0  0  0
 10 12  1  0  0  0  0
 11  7  1  0  0  0  0
 11 12  2  0  0  0  0
 11 14  1  0  0  0  0
 12 13  1  0  0  0  0
 13 16  1  0  0  0  0
 15 14  1  0  0  0  0
 15 16  2  0  0  0  0
 16 17  1  0  0  0  0
 17 18  2  0  0  0  0
 18 19  1  0  0  0  0
 19 20  2  0  0  0  0
 20 15  1  0  0  0  0
 10 21  1  0  0  0  0
 21 22  1  0  0  0  0
 17 23  1  0  0  0  0
 13 24  2  0  0  0  0
  3 25  1  6  0  0  0
  2 26  1  6  0  0  0
  4 27  1  0  0  0  0
  5 28  1  0  0  0  0
  9 29  1  0  0  0  0
 18 30  1  0  0  0  0
 19 31  1  0  0  0  0
 20 32  1  0  0  0  0
 22 33  1  0  0  0  0
 22 34  1  0  0  0  0
 22 35  1  0  0  0  0
 23 36  1  0  0  0  0
M  END
>  <Substance ID> (568)
568

>  <Mouse_Female_Canc> (568)
3

>  <SAL> (568)
3

>  <Rat_Male_Canc> (568)
3

>  <TD50_Rat> (568)
0.152

>  <TD50_Mouse> (568)
0.908

>  <Rat_Female_Canc> (568)
3

>  <Canc> (568)
3

>  <MolWeight> (568)
324.29

>  <Mouse_Male_Canc> (568)
ND

>  <Mouse_Male_NTP> (568)
ND

>  <ChemName> (568)
Sterigmatocystin

>  <Rat_Male_NTP> (568)
ND

>  <Reference> (568)
CPDB

>  <Formula> (568)
C18H12O6

>  <SMILES> (568)
O=C1C2=C(C=C3C(=C2OC4=CC=CC(=C14)O)C5C(O3)OC=C5)OC

>  <Rat_Female_NTP> (568)
ND

>  <CAS> (568)
10048-13-2

>  <Mouse_Female_NTP> (568)
ND

>  <Synonyms> (568)
3a,12c-dihydro-8-hydroxy-6-methoxy-7H-Furo[3',2':4,5]furo[2,3-c]xanthen-7-one.

$$$$
569
 

 35 35  0  0  0  0  0  0  0  0999 V2000
   39.3182  -36.6708   -0.3488 C   0  0  0  0  0  0  0  0  0  0  0  0
   39.6748  -37.9365   -0.1375 C   0  0  0  0  0  0  0  0  0  0  0  0
   41.9608  -37.2843    0.3328 C   0  0  0  0  0  0  0  0  0  0  0  0
   41.5723  -35.8936    0.0936 C   0  0  0  0  0  0  0  0  0  0  0  0
   41.0562  -38.2563    0.2251 C   0  0  0  0  0  0  0  0  0  0  0  0
   40.3127  -35.6004   -0.2248 C   0  0  0  0  0  0  0  0  0  0  0  0
   38.7338  -38.9547   -0.2571 O   0  0  0  0  0  0  0  0  0  0  0  0
   39.9415  -34.2785   -0.4376 O   0  0  0  0  0  0  0  0  0  0  0  0
   43.3671  -37.6199    0.7309 C   0  0  2  0  0  0  0  0  0  0  0  0
   44.4256  -36.7313    0.0527 C   0  0  0  0  0  0  0  0  0  0  0  0
   45.7326  -37.0277    0.6745 N   0  0  0  0  0  0  0  0  0  0  0  0
   43.6397  -39.0095    0.5566 O   0  0  0  0  0  0  0  0  0  0  0  0
   46.8577  -36.4795   -0.1117 C   0  0  0  0  0  0  0  0  0  0  0  0
   46.6873  -34.9604   -0.3182 C   0  0  0  0  0  0  0  0  0  0  0  0
   46.9226  -37.1844   -1.4820 C   0  0  0  0  0  0  0  0  0  0  0  0
   48.1697  -36.7424    0.6514 C   0  0  0  0  0  0  0  0  0  0  0  0
   38.3734  -36.4507   -0.5917 H   0  0  0  0  0  0  0  0  0  0  0  0
   42.2521  -35.1641    0.1693 H   0  0  0  0  0  0  0  0  0  0  0  0
   41.3214  -39.2059    0.3923 H   0  0  0  0  0  0  0  0  0  0  0  0
   39.1683  -39.8348   -0.0662 H   0  0  0  0  0  0  0  0  0  0  0  0
   40.7362  -33.6845   -0.3132 H   0  0  0  0  0  0  0  0  0  0  0  0
   43.4368  -37.4160    1.7074 H   0  0  0  0  0  0  0  0  0  0  0  0
   44.4616  -36.9326   -0.9261 H   0  0  0  0  0  0  0  0  0  0  0  0
   44.1964  -35.7672    0.1870 H   0  0  0  0  0  0  0  0  0  0  0  0
   45.7529  -36.6261    1.5900 H   0  0  0  0  0  0  0  0  0  0  0  0
   44.5822  -39.2016    0.8297 H   0  0  0  0  0  0  0  0  0  0  0  0
   47.4563  -34.6076   -0.8512 H   0  0  0  0  0  0  0  0  0  0  0  0
   46.6611  -34.5034    0.5709 H   0  0  0  0  0  0  0  0  0  0  0  0
   45.8338  -34.7838   -0.8085 H   0  0  0  0  0  0  0  0  0  0  0  0
   47.6841  -36.8126   -2.0128 H   0  0  0  0  0  0  0  0  0  0  0  0
   46.0667  -37.0325   -1.9764 H   0  0  0  0  0  0  0  0  0  0  0  0
   47.0592  -38.1657   -1.3464 H   0  0  0  0  0  0  0  0  0  0  0  0
   48.9391  -36.3754    0.1287 H   0  0  0  0  0  0  0  0  0  0  0  0
   48.2916  -37.7270    0.7764 H   0  0  0  0  0  0  0  0  0  0  0  0
   48.1313  -36.2955    1.5452 H   0  0  0  0  0  0  0  0  0  0  0  0
  1  2  2  0  0  0  0
  3  4  1  0  0  0  0
  1  6  1  0  0  0  0
  2  5  1  0  0  0  0
  5  3  2  0  0  0  0
  4  6  2  0  0  0  0
  2  7  1  0  0  0  0
  6  8  1  0  0  0  0
  3  9  1  0  0  0  0
  9 10  1  0  0  0  0
 10 11  1  0  0  0  0
  9 12  1  0  0  0  0
 11 13  1  0  0  0  0
 13 14  1  0  0  0  0
 13 15  1  0  0  0  0
 13 16  1  0  0  0  0
  1 17  1  0  0  0  0
  4 18  1  0  0  0  0
  5 19  1  0  0  0  0
  7 20  1  0  0  0  0
  8 21  1  0  0  0  0
  9 22  1  0  0  0  0
 10 23  1  0  0  0  0
 10 24  1  0  0  0  0
 11 25  1  0  0  0  0
 12 26  1  0  0  0  0
 14 27  1  0  0  0  0
 14 28  1  0  0  0  0
 14 29  1  0  0  0  0
 15 30  1  0  0  0  0
 15 31  1  0  0  0  0
 15 32  1  0  0  0  0
 16 33  1  0  0  0  0
 16 34  1  0  0  0  0
 16 35  1  0  0  0  0
M  END
>  <Substance ID> (569)
569

>  <Mouse_Female_Canc> (569)
ND

>  <SAL> (569)
ND

>  <Rat_Male_Canc> (569)
ND

>  <TD50_Rat> (569)
410

>  <TD50_Mouse> (569)
ND

>  <Rat_Female_Canc> (569)
3

>  <Canc> (569)
3

>  <MolWeight> (569)
225.29

>  <Mouse_Male_Canc> (569)
ND

>  <Mouse_Male_NTP> (569)
ND

>  <ChemName> (569)
Terbutaline

>  <Rat_Male_NTP> (569)
ND

>  <Reference> (569)
CPDB

>  <Formula> (569)
C12H19NO3

>  <SMILES> (569)
CC(C)(C)NCC(O)C1=CC(O)=CC(=C1)O

>  <Rat_Female_NTP> (569)
ND

>  <CAS> (569)
23031-25-6

>  <Mouse_Female_NTP> (569)
ND

>  <Synonyms> (569)
-

$$$$
570
 

 20 19  0  0  0  0  0  0  0  0999 V2000
   39.4132  -45.6851    0.0536 C   0  0  0  0  0  0  0  0  0  0
   40.7110  -46.5119   -0.1004 C   0  0  0  0  0  0  0  0  0  0
   41.9949  -45.7716   -0.0240 N   0  0  0  0  0  0  0  0  0  0
   42.1270  -44.4042    0.0336 N   0  0  0  0  0  0  0  0  0  0
   41.2380  -43.6355   -0.0276 O   0  0  0  0  0  0  0  0  0  0
   43.1700  -46.5314   -0.0174 C   0  0  0  0  0  0  0  0  0  0
   43.1073  -47.7661   -0.0628 O   0  0  0  0  0  0  0  0  0  0
   44.4096  -45.8973    0.0375 O   0  0  0  0  0  0  0  0  0  0
   45.4546  -46.8732    0.0292 C   0  0  0  0  0  0  0  0  0  0
   46.8174  -46.1621    0.0801 C   0  0  0  0  0  0  0  0  0  0
   38.6210  -46.2914   -0.0155 H   0  0  0  0  0  0  0  0  0  0
   39.3688  -44.9958   -0.6696 H   0  0  0  0  0  0  0  0  0  0
   39.4094  -45.2328    0.9454 H   0  0  0  0  0  0  0  0  0  0
   40.7170  -47.2014    0.6239 H   0  0  0  0  0  0  0  0  0  0
   40.6764  -46.9643   -0.9916 H   0  0  0  0  0  0  0  0  0  0
   45.3599  -47.4702    0.8258 H   0  0  0  0  0  0  0  0  0  0
   45.3943  -47.4194   -0.8063 H   0  0  0  0  0  0  0  0  0  0
   47.5497  -46.8430    0.0743 H   0  0  0  0  0  0  0  0  0  0
   46.8777  -45.6155    0.9153 H   0  0  0  0  0  0  0  0  0  0
   46.9121  -45.5647   -0.7163 H   0  0  0  0  0  0  0  0  0  0
  1  2  1  0  0  0  0
  2  3  1  0  0  0  0
  3  4  1  0  0  0  0
  4  5  2  0  0  0  0
  3  6  1  0  0  0  0
  6  7  2  0  0  0  0
  6  8  1  0  0  0  0
  8  9  1  0  0  0  0
  9 10  1  0  0  0  0
  1 11  1  0  0  0  0
  1 12  1  0  0  0  0
  1 13  1  0  0  0  0
  2 14  1  0  0  0  0
  2 15  1  0  0  0  0
  9 16  1  0  0  0  0
  9 17  1  0  0  0  0
 10 18  1  0  0  0  0
 10 19  1  0  0  0  0
 10 20  1  0  0  0  0
M  END
>  <Substance ID> (570)
570

>  <Mouse_Female_Canc> (570)
ND

>  <SAL> (570)
3

>  <Rat_Male_Canc> (570)
ND

>  <TD50_Rat> (570)
0.0904

>  <TD50_Mouse> (570)
ND

>  <Rat_Female_Canc> (570)
3

>  <Canc> (570)
3

>  <MolWeight> (570)
146.15

>  <Mouse_Male_Canc> (570)
ND

>  <Mouse_Male_NTP> (570)
ND

>  <ChemName> (570)
Nitrosoethylurethane

>  <Rat_Male_NTP> (570)
ND

>  <Reference> (570)
CPDB

>  <Formula> (570)
C5H10N2O3

>  <SMILES> (570)
O=C(N(CC)N=O)OCC

>  <Rat_Female_NTP> (570)
ND

>  <CAS> (570)
614-95-9

>  <Mouse_Female_NTP> (570)
ND

>  <Synonyms> (570)
1-Ethyl-1-nitrosourethane; Ethyl Ethylnitrosocarbamate -Carc.; N-Nitroso-N-ethylurethane.

$$$$
571
 

 18 18  0  0  0  0  0  0  0  0999 V2000
   39.0117  -55.0359    0.0004 C   0  0  0  0  0  0  0  0  0  0  0  0
   38.9960  -56.3671   -0.0002 C   0  0  0  0  0  0  0  0  0  0  0  0
   41.4142  -56.4619    0.0002 C   0  0  0  0  0  0  0  0  0  0  0  0
   41.4317  -55.0002   -0.0002 C   0  0  0  0  0  0  0  0  0  0  0  0
   40.2536  -57.1139    0.0004 C   0  0  0  0  0  0  0  0  0  0  0  0
   40.2874  -54.3202    0.0006 C   0  0  0  0  0  0  0  0  0  0  0  0
   42.6171  -57.1739    0.0002 N   0  0  0  0  0  0  0  0  0  0  0  0
   43.8668  -56.4703    0.0003 C   0  0  0  0  0  0  0  0  0  0  0  0
   42.6016  -58.5041    0.0008 N   0  0  0  0  0  0  0  0  0  0  0  0
   43.6131  -59.1026   -0.0004 O   0  0  0  0  0  0  0  0  0  0  0  0
   38.1518  -54.5255    0.0007 H   0  0  0  0  0  0  0  0  0  0  0  0
   38.1241  -56.8567   -0.0011 H   0  0  0  0  0  0  0  0  0  0  0  0
   42.3038  -54.5108   -0.0010 H   0  0  0  0  0  0  0  0  0  0  0  0
   40.2416  -58.1138    0.0009 H   0  0  0  0  0  0  0  0  0  0  0  0
   40.2999  -53.3203    0.0013 H   0  0  0  0  0  0  0  0  0  0  0  0
   44.6201  -57.1279    0.0003 H   0  0  0  0  0  0  0  0  0  0  0  0
   43.9263  -55.8959    0.8168 H   0  0  0  0  0  0  0  0  0  0  0  0
   43.9264  -55.8958   -0.8160 H   0  0  0  0  0  0  0  0  0  0  0  0
  1  2  2  0  0  0  0
  3  4  1  0  0  0  0
  1  6  1  0  0  0  0
  2  5  1  0  0  0  0
  5  3  2  0  0  0  0
  4  6  2  0  0  0  0
  3  7  1  0  0  0  0
  7  8  1  0  0  0  0
  7  9  1  0  0  0  0
  9 10  2  0  0  0  0
  1 11  1  0  0  0  0
  2 12  1  0  0  0  0
  4 13  1  0  0  0  0
  5 14  1  0  0  0  0
  6 15  1  0  0  0  0
  8 16  1  0  0  0  0
  8 17  1  0  0  0  0
  8 18  1  0  0  0  0
M  END
>  <Substance ID> (571)
571

>  <Mouse_Female_Canc> (571)
ND

>  <SAL> (571)
3

>  <Rat_Male_Canc> (571)
3

>  <TD50_Rat> (571)
0.142

>  <TD50_Mouse> (571)
ND

>  <Rat_Female_Canc> (571)
3

>  <Canc> (571)
3

>  <MolWeight> (571)
136.15

>  <Mouse_Male_Canc> (571)
ND

>  <Mouse_Male_NTP> (571)
ND

>  <ChemName> (571)
Nitrosomethylaniline

>  <Rat_Male_NTP> (571)
ND

>  <Reference> (571)
CPDB

>  <Formula> (571)
C7H8N2O

>  <SMILES> (571)
CN(C1=CC=CC=C1)N=O

>  <Rat_Female_NTP> (571)
ND

>  <CAS> (571)
614-00-6

>  <Mouse_Female_NTP> (571)
ND

>  <Synonyms> (571)
Methyl-phenyl-nitrosamine; N-Methyl-N-nitrosoaniline; N-methyl-N-nitrosobenzenamine; N-NITROSO-N-METHYLANILINE.

$$$$
572
  

 21 20  0  0  0  0  0  0  0  0999 V2000
   39.5610  -64.0143    0.0310 N   0  0  0  0  0  0  0  0  0  0  0  0
   39.8168  -62.7279   -0.2298 N   0  0  0  0  0  0  0  0  0  0  0  0
   40.9217  -62.3461   -0.3529 O   0  0  0  0  0  0  0  0  0  0  0  0
   40.6046  -64.9545    0.1501 C   0  0  0  0  0  0  0  0  0  0  0  0
   40.3106  -66.1624    0.4136 N   0  0  0  0  0  0  0  0  0  0  0  0
   41.9569  -64.5539   -0.0351 N   0  0  0  0  0  0  0  0  0  0  0  0
   38.2016  -64.4551    0.1773 C   0  0  0  0  0  0  0  0  0  0  0  0
   37.2412  -63.2983   -0.1454 C   0  0  0  0  0  0  0  0  0  0  0  0
   35.7892  -63.7915   -0.0124 C   0  0  0  0  0  0  0  0  0  0  0  0
   42.9942  -65.4239   -0.0091 N   0  3  0  0  0  0  0  0  0  0  0  0
   42.7966  -66.7273    0.1632 O   0  5  0  0  0  0  0  0  0  0  0  0
   44.0938  -65.0246   -0.1502 O   0  0  0  0  0  0  0  0  0  0  0  0
   41.0355  -66.8455    0.5025 H   0  0  0  0  0  0  0  0  0  0  0  0
   42.1504  -63.5853   -0.1916 H   0  0  0  0  0  0  0  0  0  0  0  0
   38.0296  -65.2142   -0.4505 H   0  0  0  0  0  0  0  0  0  0  0  0
   38.0508  -64.7591    1.1179 H   0  0  0  0  0  0  0  0  0  0  0  0
   37.3983  -62.5456    0.4939 H   0  0  0  0  0  0  0  0  0  0  0  0
   37.4021  -62.9815   -1.0802 H   0  0  0  0  0  0  0  0  0  0  0  0
   35.1615  -63.0416   -0.2215 H   0  0  0  0  0  0  0  0  0  0  0  0
   35.6288  -64.1089    0.9223 H   0  0  0  0  0  0  0  0  0  0  0  0
   35.6326  -64.5447   -0.6513 H   0  0  0  0  0  0  0  0  0  0  0  0
  1  2  1  0  0  0  0
  2  3  2  0  0  0  0
  1  4  1  0  0  0  0
  4  5  2  0  0  0  0
  4  6  1  0  0  0  0
  1  7  1  0  0  0  0
  7  8  1  0  0  0  0
  8  9  1  0  0  0  0
  6 10  1  0  0  0  0
 10 11  1  0  0  0  0
 10 12  2  0  0  0  0
  5 13  1  0  0  0  0
  6 14  1  0  0  0  0
  7 15  1  0  0  0  0
  7 16  1  0  0  0  0
  8 17  1  0  0  0  0
  8 18  1  0  0  0  0
  9 19  1  0  0  0  0
  9 20  1  0  0  0  0
  9 21  1  0  0  0  0
M  END
>  <Substance ID> (572)
572

>  <Mouse_Female_Canc> (572)
ND

>  <SAL> (572)
3

>  <Rat_Male_Canc> (572)
3

>  <TD50_Rat> (572)
1.31

>  <TD50_Mouse> (572)
ND

>  <Rat_Female_Canc> (572)
ND

>  <Canc> (572)
3

>  <MolWeight> (572)
175.15

>  <Mouse_Male_Canc> (572)
ND

>  <Mouse_Male_NTP> (572)
ND

>  <ChemName> (572)
N-propyl-N'-nitro-N-nitrosoguanidine

>  <Rat_Male_NTP> (572)
ND

>  <Reference> (572)
CPDB

>  <Formula> (572)
C4H9N5O3

>  <SMILES> (572)
N=C(N(CCC)N=O)N[N+](=O)[O-]

>  <Rat_Female_NTP> (572)
ND

>  <CAS> (572)
13010-07-6

>  <Mouse_Female_NTP> (572)
ND

>  <Synonyms> (572)
N'-Nitro-N-Nitroso-N-Propylguanidine, 98%.

$$$$
573
 

 25 24  0  0  0  0  0  0  0  0999 V2000
   33.9406  -72.2184    0.0538 Cl  0  0  0  0  0  0  0  0  0  0  0  0
   35.4562  -73.0399    0.4305 C   0  0  0  0  0  0  0  0  0  0  0  0
   36.6317  -72.2816   -0.2051 C   0  0  0  0  0  0  0  0  0  0  0  0
   37.8644  -73.0148    0.0868 N   0  0  0  0  0  0  0  0  0  0  0  0
   39.1119  -72.5864   -0.4579 C   0  0  0  0  0  0  0  0  0  0  0  0
   40.2595  -73.3243   -0.1853 N   0  0  0  0  0  0  0  0  0  0  0  0
   41.5083  -72.9553   -0.8021 C   0  0  0  0  0  0  0  0  0  0  0  0
   42.5478  -72.5880    0.2691 C   0  0  1  0  0  0  0  0  0  0  0  0
   43.8861  -72.2482   -0.4098 C   0  0  0  0  0  0  0  0  0  0  0  0
   39.1663  -71.5851   -1.1795 O   0  0  0  0  0  0  0  0  0  0  0  0
   42.0819  -71.4524    1.0033 O   0  0  0  0  0  0  0  0  0  0  0  0
   40.1744  -74.3923    0.6244 N   0  0  0  0  0  0  0  0  0  0  0  0
   41.0835  -75.1258    0.7703 O   0  0  0  0  0  0  0  0  0  0  0  0
   35.5791  -73.0712    1.4224 H   0  0  0  0  0  0  0  0  0  0  0  0
   35.4276  -73.9715    0.0681 H   0  0  0  0  0  0  0  0  0  0  0  0
   36.5001  -72.2224   -1.1947 H   0  0  0  0  0  0  0  0  0  0  0  0
   36.6873  -71.3604    0.1799 H   0  0  0  0  0  0  0  0  0  0  0  0
   37.8321  -73.8238    0.6736 H   0  0  0  0  0  0  0  0  0  0  0  0
   41.8493  -73.7252   -1.3415 H   0  0  0  0  0  0  0  0  0  0  0  0
   41.3600  -72.1681   -1.4006 H   0  0  0  0  0  0  0  0  0  0  0  0
   42.6794  -73.3600    0.8908 H   0  0  0  0  0  0  0  0  0  0  0  0
   44.5626  -72.0092    0.2868 H   0  0  0  0  0  0  0  0  0  0  0  0
   43.7589  -71.4739   -1.0297 H   0  0  0  0  0  0  0  0  0  0  0  0
   44.2080  -73.0405   -0.9283 H   0  0  0  0  0  0  0  0  0  0  0  0
   42.7540  -71.2081    1.7023 H   0  0  0  0  0  0  0  0  0  0  0  0
  1  2  1  0  0  0  0
  2  3  1  0  0  0  0
  3  4  1  0  0  0  0
  4  5  1  0  0  0  0
  5  6  1  0  0  0  0
  6  7  1  0  0  0  0
  7  8  1  0  0  0  0
  8  9  1  0  0  0  0
  5 10  2  0  0  0  0
  8 11  1  0  0  0  0
  6 12  1  0  0  0  0
 12 13  2  0  0  0  0
  2 14  1  0  0  0  0
  2 15  1  0  0  0  0
  3 16  1  0  0  0  0
  3 17  1  0  0  0  0
  4 18  1  0  0  0  0
  7 19  1  0  0  0  0
  7 20  1  0  0  0  0
  8 21  1  0  0  0  0
  9 22  1  0  0  0  0
  9 23  1  0  0  0  0
  9 24  1  0  0  0  0
 11 25  1  0  0  0  0
M  END
>  <Substance ID> (573)
573

>  <Mouse_Female_Canc> (573)
ND

>  <SAL> (573)
ND

>  <Rat_Male_Canc> (573)
3

>  <TD50_Rat> (573)
0.873

>  <TD50_Mouse> (573)
ND

>  <Rat_Female_Canc> (573)
3

>  <Canc> (573)
3

>  <MolWeight> (573)
209.63

>  <Mouse_Male_Canc> (573)
ND

>  <Mouse_Male_NTP> (573)
ND

>  <ChemName> (573)
1-Nitroso-1-(2-hydroxypropyl)-3-chloroethylurea

>  <Rat_Male_NTP> (573)
ND

>  <Reference> (573)
CPDB

>  <Formula> (573)
C6H12ClN3O3

>  <SMILES> (573)
O=C(N(CC(C)O)N=O)NCCCl

>  <Rat_Female_NTP> (573)
ND

>  <CAS> (573)
96806-35-8

>  <Mouse_Female_NTP> (573)
ND

>  <Synonyms> (573)
1-(2-Hydroxypropyl)-nitroso-3-chloroethylurea.

$$$$
574
 

 26 25  0  0  0  0  0  0  0  0999 V2000
   36.8462  -83.6322    0.0135 N   0  0  0  0  0  0  0  0  0  0  0  0
   38.0166  -82.9855    0.0078 N   0  0  0  0  0  0  0  0  0  0  0  0
   39.2015  -83.7248   -0.0140 C   0  0  0  0  0  0  0  0  0  0  0  0
   39.1531  -84.9578   -0.0286 O   0  0  0  0  0  0  0  0  0  0  0  0
   38.0532  -81.5378    0.0213 C   0  0  0  0  0  0  0  0  0  0  0  0
   39.5077  -81.0248   -0.0105 C   0  0  0  0  0  0  0  0  0  0  0  0
   39.5056  -79.4853    0.0019 C   0  0  0  0  0  0  0  0  0  0  0  0
   35.6063  -82.9074    0.0307 C   0  0  0  0  0  0  0  0  0  0  0  0
   34.4287  -83.8962   -0.0193 C   0  0  0  0  0  0  0  0  0  0  0  0
   33.1039  -83.1120   -0.0043 C   0  0  0  0  0  0  0  0  0  0  0  0
   36.8340  -84.6321    0.0056 H   0  0  0  0  0  0  0  0  0  0  0  0
   40.0853  -83.2570   -0.0178 H   0  0  0  0  0  0  0  0  0  0  0  0
   37.5659  -81.1904   -0.7798 H   0  0  0  0  0  0  0  0  0  0  0  0
   37.6073  -81.2067    0.8528 H   0  0  0  0  0  0  0  0  0  0  0  0
   39.9990  -81.3644    0.7916 H   0  0  0  0  0  0  0  0  0  0  0  0
   39.9587  -81.3514   -0.8411 H   0  0  0  0  0  0  0  0  0  0  0  0
   40.4475  -79.1501   -0.0186 H   0  0  0  0  0  0  0  0  0  0  0  0
   39.0542  -79.1588    0.8323 H   0  0  0  0  0  0  0  0  0  0  0  0
   39.0139  -79.1457   -0.7999 H   0  0  0  0  0  0  0  0  0  0  0  0
   35.5497  -82.3650    0.8689 H   0  0  0  0  0  0  0  0  0  0  0  0
   35.5648  -82.3005   -0.7630 H   0  0  0  0  0  0  0  0  0  0  0  0
   34.4851  -84.4404   -0.8564 H   0  0  0  0  0  0  0  0  0  0  0  0
   34.4672  -84.5016    0.7757 H   0  0  0  0  0  0  0  0  0  0  0  0
   32.3365  -83.7524   -0.0368 H   0  0  0  0  0  0  0  0  0  0  0  0
   33.0656  -82.5062   -0.7990 H   0  0  0  0  0  0  0  0  0  0  0  0
   33.0478  -82.5674    0.8325 H   0  0  0  0  0  0  0  0  0  0  0  0
  1  2  1  0  0  0  0
  2  3  1  0  0  0  0
  3  4  2  0  0  0  0
  2  5  1  0  0  0  0
  5  6  1  0  0  0  0
  6  7  1  0  0  0  0
  1  8  1  0  0  0  0
  8  9  1  0  0  0  0
  9 10  1  0  0  0  0
  1 11  1  0  0  0  0
  3 12  1  0  0  0  0
  5 13  1  0  0  0  0
  5 14  1  0  0  0  0
  6 15  1  0  0  0  0
  6 16  1  0  0  0  0
  7 17  1  0  0  0  0
  7 18  1  0  0  0  0
  7 19  1  0  0  0  0
  8 20  1  0  0  0  0
  8 21  1  0  0  0  0
  9 22  1  0  0  0  0
  9 23  1  0  0  0  0
 10 24  1  0  0  0  0
 10 25  1  0  0  0  0
 10 26  1  0  0  0  0
M  END
>  <Substance ID> (574)
574

>  <Mouse_Female_Canc> (574)
3

>  <SAL> (574)
ND

>  <Rat_Male_Canc> (574)
ND

>  <TD50_Rat> (574)
ND

>  <TD50_Mouse> (574)
8.79

>  <Rat_Female_Canc> (574)
ND

>  <Canc> (574)
3

>  <MolWeight> (574)
144.22

>  <Mouse_Male_Canc> (574)
3

>  <Mouse_Male_NTP> (574)
ND

>  <ChemName> (574)
N,N'-dipropyl-N-formylhydrazine

>  <Rat_Male_NTP> (574)
ND

>  <Reference> (574)
CPDB

>  <Formula> (574)
C7H16N2O

>  <SMILES> (574)
N(NCCC)(C=O)CCC

>  <Rat_Female_NTP> (574)
ND

>  <CAS> (574)
77337-54-3

>  <Mouse_Female_NTP> (574)
ND

>  <Synonyms> (574)
-

$$$$
575
 

 21 20  0  0  0  0  0  0  0  0999 V2000
   38.6578  -93.1431   -0.5240 C   0  0  0  0  0  0  0  0  0  0  0  0
   39.5868  -91.9175   -0.4570 C   0  0  0  0  0  0  0  0  0  0  0  0
   40.9967  -92.3876    0.0104 C   0  0  0  0  0  0  0  0  0  0  0  0
   42.0338  -91.3144    0.0045 N   0  0  0  0  0  0  0  0  0  0  0  0
   43.4169  -91.7028    0.1293 C   0  0  0  0  0  0  0  0  0  0  0  0
   43.7534  -93.0911    0.2187 N   0  0  0  0  0  0  0  0  0  0  0  0
   38.9689  -90.9041    0.5363 C   0  0  0  0  0  0  0  0  0  0  0  0
   41.6872  -89.9819   -0.0512 N   0  0  0  0  0  0  0  0  0  0  0  0
   44.3154  -90.8545    0.1582 O   0  0  0  0  0  0  0  0  0  0  0  0
   42.5030  -89.1364   -0.0265 O   0  0  0  0  0  0  0  0  0  0  0  0
   37.7477  -92.8562   -0.8231 H   0  0  0  0  0  0  0  0  0  0  0  0
   38.5935  -93.5632    0.3812 H   0  0  0  0  0  0  0  0  0  0  0  0
   39.0277  -93.8072   -1.1738 H   0  0  0  0  0  0  0  0  0  0  0  0
   39.6840  -91.4771   -1.3495 H   0  0  0  0  0  0  0  0  0  0  0  0
   40.9162  -92.7404    0.9427 H   0  0  0  0  0  0  0  0  0  0  0  0
   41.3005  -93.1203   -0.5986 H   0  0  0  0  0  0  0  0  0  0  0  0
   44.7100  -93.3692    0.3054 H   0  0  0  0  0  0  0  0  0  0  0  0
   43.0319  -93.7831    0.1944 H   0  0  0  0  0  0  0  0  0  0  0  0
   39.5556  -90.0966    0.5976 H   0  0  0  0  0  0  0  0  0  0  0  0
   38.8897  -91.3272    1.4389 H   0  0  0  0  0  0  0  0  0  0  0  0
   38.0616  -90.6326    0.2151 H   0  0  0  0  0  0  0  0  0  0  0  0
  1  2  1  0  0  0  0
  2  3  1  0  0  0  0
  3  4  1  0  0  0  0
  4  5  1  0  0  0  0
  5  6  1  0  0  0  0
  2  7  1  0  0  0  0
  4  8  1  0  0  0  0
  5  9  2  0  0  0  0
  8 10  2  0  0  0  0
  1 11  1  0  0  0  0
  1 12  1  0  0  0  0
  1 13  1  0  0  0  0
  2 14  1  0  0  0  0
  3 15  1  0  0  0  0
  3 16  1  0  0  0  0
  6 17  1  0  0  0  0
  6 18  1  0  0  0  0
  7 19  1  0  0  0  0
  7 20  1  0  0  0  0
  7 21  1  0  0  0  0
M  END
>  <Substance ID> (575)
575

>  <Mouse_Female_Canc> (575)
ND

>  <SAL> (575)
ND

>  <Rat_Male_Canc> (575)
ND

>  <TD50_Rat> (575)
4.73

>  <TD50_Mouse> (575)
ND

>  <Rat_Female_Canc> (575)
3

>  <Canc> (575)
3

>  <MolWeight> (575)
145.16

>  <Mouse_Male_Canc> (575)
ND

>  <Mouse_Male_NTP> (575)
ND

>  <ChemName> (575)
N-nitroso-N-isobutylurea

>  <Rat_Male_NTP> (575)
ND

>  <Reference> (575)
CPDB

>  <Formula> (575)
C5H11N3O2

>  <SMILES> (575)
O=C(N(CC(C)C)N=O)N

>  <Rat_Female_NTP> (575)
ND

>  <CAS> (575)
760-60-1

>  <Mouse_Female_NTP> (575)
ND

>  <Synonyms> (575)
N-(2-methylpropyl)-N-nitroso-urea; N-isobutyl-N-nitrosourea.

$$$$
576
 

 15 14  0  0  0  0  0  0  0  0999 V2000
    6.2118   -3.8089    0.0001 N   0  0  0  0  0  0  0  0  0  0  0  0
    5.0623   -2.8935   -0.0002 C   0  0  0  0  0  0  0  0  0  0  0  0
    3.7567   -3.7092    0.0000 C   0  0  0  0  0  0  0  0  0  0  0  0
    2.5524   -2.7500   -0.0003 C   0  0  0  0  0  0  0  0  0  0  0  0
    7.3987   -3.0673   -0.0002 N   0  0  0  0  0  0  0  0  0  0  0  0
    6.1789   -4.3848    0.8169 H   0  0  0  0  0  0  0  0  0  0  0  0
    5.0952   -2.3170    0.8162 H   0  0  0  0  0  0  0  0  0  0  0  0
    5.0952   -2.3176   -0.8171 H   0  0  0  0  0  0  0  0  0  0  0  0
    3.7238   -4.2857   -0.8164 H   0  0  0  0  0  0  0  0  0  0  0  0
    3.7238   -4.2851    0.8169 H   0  0  0  0  0  0  0  0  0  0  0  0
    1.7041   -3.2794   -0.0001 H   0  0  0  0  0  0  0  0  0  0  0  0
    2.5850   -2.1737   -0.8169 H   0  0  0  0  0  0  0  0  0  0  0  0
    2.5850   -2.1731    0.8159 H   0  0  0  0  0  0  0  0  0  0  0  0
    8.1812   -3.6898    0.0001 H   0  0  0  0  0  0  0  0  0  0  0  0
    7.4320   -2.4904    0.8160 H   0  0  0  0  0  0  0  0  0  0  0  0
  1  2  1  0  0  0  0
  2  3  1  0  0  0  0
  3  4  1  0  0  0  0
  1  5  1  0  0  0  0
  1  6  1  0  0  0  0
  2  7  1  0  0  0  0
  2  8  1  0  0  0  0
  3  9  1  0  0  0  0
  3 10  1  0  0  0  0
  4 11  1  0  0  0  0
  4 12  1  0  0  0  0
  4 13  1  0  0  0  0
  5 14  1  0  0  0  0
  5 15  1  0  0  0  0
M  END
>  <Substance ID> (576)
576

>  <Mouse_Female_Canc> (576)
3

>  <SAL> (576)
ND

>  <Rat_Male_Canc> (576)
ND

>  <TD50_Rat> (576)
ND

>  <TD50_Mouse> (576)
45.5

>  <Rat_Female_Canc> (576)
ND

>  <Canc> (576)
3

>  <MolWeight> (576)
74.13

>  <Mouse_Male_Canc> (576)
3

>  <Mouse_Male_NTP> (576)
ND

>  <ChemName> (576)
Propylhydrazine Hydrochloride

>  <Rat_Male_NTP> (576)
ND

>  <Reference> (576)
CPDB

>  <Formula> (576)
C3H10N2

>  <SMILES> (576)
NNCCC

>  <Rat_Female_NTP> (576)
ND

>  <CAS> (576)
56795-66-5

>  <Mouse_Female_NTP> (576)
ND

>  <Synonyms> (576)
-

$$$$
577
 

 16 16  0  0  0  0  0  0  0  0999 V2000
    1.9615  -10.2997   -0.0000 C   0  0  0  0  0  0  0  0  0  0  0  0
    1.9597  -11.6314    0.0002 C   0  0  0  0  0  0  0  0  0  0  0  0
    4.3805  -11.7008   -0.0002 C   0  0  0  0  0  0  0  0  0  0  0  0
    4.3828  -10.2370   -0.0004 C   0  0  0  0  0  0  0  0  0  0  0  0
    3.2263  -12.3650   -0.0001 C   0  0  0  0  0  0  0  0  0  0  0  0
    3.2303   -9.5695   -0.0006 C   0  0  0  0  0  0  0  0  0  0  0  0
    5.5930   -9.5408   -0.0007 N   0  0  0  0  0  0  0  0  0  0  0  0
    5.5889  -12.4001    0.0006 N   0  0  0  0  0  0  0  0  0  0  0  0
    1.0961   -9.7985    0.0002 H   0  0  0  0  0  0  0  0  0  0  0  0
    1.0930  -12.1302    0.0007 H   0  0  0  0  0  0  0  0  0  0  0  0
    3.2249  -13.3650   -0.0003 H   0  0  0  0  0  0  0  0  0  0  0  0
    3.2317   -8.5695   -0.0012 H   0  0  0  0  0  0  0  0  0  0  0  0
    5.5946   -8.5408   -0.0008 H   0  0  0  0  0  0  0  0  0  0  0  0
    6.4582  -10.0421   -0.0007 H   0  0  0  0  0  0  0  0  0  0  0  0
    5.5879  -13.4001    0.0007 H   0  0  0  0  0  0  0  0  0  0  0  0
    6.4554  -11.9010    0.0010 H   0  0  0  0  0  0  0  0  0  0  0  0
  1  2  2  0  0  0  0
  3  4  1  0  0  0  0
  1  6  1  0  0  0  0
  2  5  1  0  0  0  0
  5  3  2  0  0  0  0
  4  6  2  0  0  0  0
  4  7  1  0  0  0  0
  3  8  1  0  0  0  0
  1  9  1  0  0  0  0
  2 10  1  0  0  0  0
  5 11  1  0  0  0  0
  6 12  1  0  0  0  0
  7 13  1  0  0  0  0
  7 14  1  0  0  0  0
  8 15  1  0  0  0  0
  8 16  1  0  0  0  0
M  END
>  <Substance ID> (577)
577

>  <Mouse_Female_Canc> (577)
3

>  <SAL> (577)
3

>  <Rat_Male_Canc> (577)
3

>  <TD50_Rat> (577)
248

>  <TD50_Mouse> (577)
735

>  <Rat_Female_Canc> (577)
ND

>  <Canc> (577)
3

>  <MolWeight> (577)
108.14

>  <Mouse_Male_Canc> (577)
3

>  <Mouse_Male_NTP> (577)
ND

>  <ChemName> (577)
o-Phenylenediamine Dihydrochloride

>  <Rat_Male_NTP> (577)
ND

>  <Reference> (577)
CPDB

>  <Formula> (577)
C6H8N2

>  <SMILES> (577)
C1(=C(C=CC=C1)N)N

>  <Rat_Female_NTP> (577)
ND

>  <CAS> (577)
615-28-1

>  <Mouse_Female_NTP> (577)
ND

>  <Synonyms> (577)
1,2-Benzenediamine dihydrochloride; 1,2-Phenylenediamine Dihydrochloride.

$$$$
578
 

 26 25  0  0  0  0  0  0  0  0999 V2000
    9.5361  -17.3700    0.3874 C   0  0  0  0  0  0  0  0  0  1  0  0
    9.0699  -18.6663   -0.3036 C   0  0  1  0  0  0  0  0  0  2  0  0
    7.7756  -19.1835    0.4125 C   0  0  0  0  0  0  0  0  0  3  0  0
    6.4782  -18.5816   -0.0562 N   0  0  0  0  0  0  0  0  0  4  0  0
    5.2773  -19.3789    0.2672 C   0  0  0  0  0  0  0  0  0  5  0  0
    4.0225  -18.8199   -0.4436 C   0  0  1  0  0  0  0  0  0  6  0  0
    2.8102  -19.7041   -0.0988 C   0  0  0  0  0  0  0  0  0  7  0  0
    3.7585  -17.4843   -0.0088 O   0  0  0  0  0  0  0  0  0  8  0  0
    8.8390  -18.3749   -1.6748 O   0  0  0  0  0  0  0  0  0  9  0  0
   10.7274  -16.8877   -0.2444 O   0  0  0  0  0  0  0  0  0 10  0  0
    6.2700  -17.2257    0.1430 N   0  0  0  0  0  0  0  0  0 11  0  0
    7.1353  -16.4576    0.3277 O   0  0  0  0  0  0  0  0  0 12  0  0
    8.8179  -16.6780    0.3148 H   0  0  0  0  0  0  0  0  0 13  0  0
    9.7236  -17.5566    1.3518 H   0  0  0  0  0  0  0  0  0 14  0  0
    9.7604  -19.3871   -0.2433 H   0  0  0  0  0  0  0  0  0 15  0  0
    7.7226  -20.1722    0.2724 H   0  0  0  0  0  0  0  0  0 16  0  0
    7.8679  -18.9893    1.3892 H   0  0  0  0  0  0  0  0  0 17  0  0
    5.4246  -20.3232   -0.0270 H   0  0  0  0  0  0  0  0  0 18  0  0
    5.1284  -19.3567    1.2558 H   0  0  0  0  0  0  0  0  0 19  0  0
    4.1833  -18.8187   -1.4306 H   0  0  0  0  0  0  0  0  0 20  0  0
    1.9957  -19.3470   -0.5560 H   0  0  0  0  0  0  0  0  0 21  0  0
    2.6650  -19.7004    0.8906 H   0  0  0  0  0  0  0  0  0 22  0  0
    2.9813  -20.6401   -0.4067 H   0  0  0  0  0  0  0  0  0 23  0  0
    2.9458  -17.1358   -0.4757 H   0  0  0  0  0  0  0  0  0 24  0  0
    8.5348  -19.2032   -2.1454 H   0  0  0  0  0  0  0  0  0 25  0  0
   11.0272  -16.0469    0.2060 H   0  0  0  0  0  0  0  0  0 26  0  0
  1  2  1  0  0  0  0
  2  3  1  0  0  0  0
  3  4  1  0  0  0  0
  4  5  1  0  0  0  0
  6  5  1  0  0  0  0
  6  7  1  0  0  0  0
  6  8  1  0  0  0  0
  2  9  1  0  0  0  0
  1 10  1  0  0  0  0
  4 11  1  0  0  0  0
 11 12  2  0  0  0  0
  1 13  1  0  0  0  0
  1 14  1  0  0  0  0
  2 15  1  0  0  0  0
  3 16  1  0  0  0  0
  3 17  1  0  0  0  0
  5 18  1  0  0  0  0
  5 19  1  0  0  0  0
  6 20  1  0  0  0  0
  7 21  1  0  0  0  0
  7 22  1  0  0  0  0
  7 23  1  0  0  0  0
  8 24  1  0  0  0  0
  9 25  1  0  0  0  0
 10 26  1  0  0  0  0
M  END
>  <Substance ID> (578)
578

>  <Mouse_Female_Canc> (578)
ND

>  <SAL> (578)
3

>  <Rat_Male_Canc> (578)
ND

>  <TD50_Rat> (578)
0.0535

>  <TD50_Mouse> (578)
ND

>  <Rat_Female_Canc> (578)
3

>  <Canc> (578)
3

>  <MolWeight> (578)
178.19

>  <Mouse_Male_Canc> (578)
ND

>  <Mouse_Male_NTP> (578)
ND

>  <ChemName> (578)
N-nitroso-2,3-dihydroxypropyl-2-hydroxypropylamine

>  <Rat_Male_NTP> (578)
ND

>  <Reference> (578)
CPDB

>  <Formula> (578)
C6H14N2O4

>  <SMILES> (578)
N(CC(CO)O)(CC(O)C)N=O

>  <Rat_Female_NTP> (578)
ND

>  <CAS> (578)
89911-79-5

>  <Mouse_Female_NTP> (578)
ND

>  <Synonyms> (578)
-

$$$$
579
  

 50 49  0  0  0  0  0  0  0  0999 V2000
   19.5965  -28.9707    0.1224 C   0  0  0  0  0  0  0  0  0  0  0  0
   18.3100  -28.1936   -0.2065 C   0  0  0  0  0  0  0  0  0  0  0  0
   17.0835  -29.0532    0.1485 C   0  0  0  0  0  0  0  0  0  0  0  0
   15.8007  -28.2655   -0.1712 C   0  0  0  0  0  0  0  0  0  0  0  0
   14.5672  -29.1272    0.1549 C   0  0  0  0  0  0  0  0  0  0  0  0
   13.2921  -28.3224   -0.1542 C   0  0  0  0  0  0  0  0  0  0  0  0
   12.0489  -29.1782    0.1487 C   0  0  0  0  0  0  0  0  0  0  0  0
   10.7838  -28.3524   -0.1463 C   0  0  0  0  0  0  0  0  0  0  0  0
    9.5306  -29.1980    0.1418 C   0  0  0  0  0  0  0  0  0  0  0  0
    8.2749  -28.3525   -0.1369 C   0  0  0  0  0  0  0  0  0  0  0  0
    7.0143  -29.1888    0.1439 C   0  0  0  0  0  0  0  0  0  0  0  0
    5.7648  -28.3296   -0.1197 C   0  0  0  0  0  0  0  0  0  0  0  0
    4.4999  -29.1609    0.1592 C   0  0  0  0  0  0  0  0  0  0  0  0
   20.7632  -28.1570   -0.2430 N   0  0  0  0  0  0  0  0  0  0  0  0
   22.0835  -28.8034   -0.2149 C   0  0  0  0  0  0  0  0  0  0  0  0
   20.7448  -26.8680    0.2072 N   0  0  0  0  0  0  0  0  0  0  0  0
   21.7407  -26.2485    0.2601 O   0  0  0  0  0  0  0  0  0  0  0  0
    3.2517  -28.2960   -0.0950 C   0  0  0  0  0  0  0  0  0  0  0  0
   19.6237  -29.1723    1.1015 H   0  0  0  0  0  0  0  0  0  0  0  0
   19.6111  -29.8263   -0.3950 H   0  0  0  0  0  0  0  0  0  0  0  0
   18.2878  -27.3466    0.3247 H   0  0  0  0  0  0  0  0  0  0  0  0
   18.2928  -27.9761   -1.1824 H   0  0  0  0  0  0  0  0  0  0  0  0
   17.1001  -29.8966   -0.3886 H   0  0  0  0  0  0  0  0  0  0  0  0
   17.1036  -29.2775    1.1228 H   0  0  0  0  0  0  0  0  0  0  0  0
   15.7777  -27.4307    0.3790 H   0  0  0  0  0  0  0  0  0  0  0  0
   15.7913  -28.0257   -1.1420 H   0  0  0  0  0  0  0  0  0  0  0  0
   14.5822  -29.9571   -0.4027 H   0  0  0  0  0  0  0  0  0  0  0  0
   14.5794  -29.3755    1.1235 H   0  0  0  0  0  0  0  0  0  0  0  0
   13.2741  -27.4987    0.4125 H   0  0  0  0  0  0  0  0  0  0  0  0
   13.2893  -28.0632   -1.1200 H   0  0  0  0  0  0  0  0  0  0  0  0
   12.0569  -29.9955   -0.4274 H   0  0  0  0  0  0  0  0  0  0  0  0
   12.0552  -29.4484    1.1115 H   0  0  0  0  0  0  0  0  0  0  0  0
   10.7757  -27.5385    0.4348 H   0  0  0  0  0  0  0  0  0  0  0  0
   10.7842  -28.0763   -1.1074 H   0  0  0  0  0  0  0  0  0  0  0  0
    9.5285  -30.0047   -0.4492 H   0  0  0  0  0  0  0  0  0  0  0  0
    9.5342  -29.4858    1.0994 H   0  0  0  0  0  0  0  0  0  0  0  0
    8.2782  -27.5471    0.4558 H   0  0  0  0  0  0  0  0  0  0  0  0
    8.2750  -28.0627   -1.0940 H   0  0  0  0  0  0  0  0  0  0  0  0
    7.0030  -29.9880   -0.4571 H   0  0  0  0  0  0  0  0  0  0  0  0
    7.0182  -29.4887    1.0979 H   0  0  0  0  0  0  0  0  0  0  0  0
    5.7772  -27.5306    0.4815 H   0  0  0  0  0  0  0  0  0  0  0  0
    5.7623  -28.0295   -1.0736 H   0  0  0  0  0  0  0  0  0  0  0  0
    4.4834  -29.9563   -0.4468 H   0  0  0  0  0  0  0  0  0  0  0  0
    4.5053  -29.4668    1.1113 H   0  0  0  0  0  0  0  0  0  0  0  0
   22.7845  -28.1426   -0.4829 H   0  0  0  0  0  0  0  0  0  0  0  0
   22.0915  -29.5740   -0.8522 H   0  0  0  0  0  0  0  0  0  0  0  0
   22.2737  -29.1339    0.7096 H   0  0  0  0  0  0  0  0  0  0  0  0
    2.4293  -28.8354    0.0859 H   0  0  0  0  0  0  0  0  0  0  0  0
    3.2460  -27.9897   -1.0470 H   0  0  0  0  0  0  0  0  0  0  0  0
    3.2679  -27.5004    0.5106 H   0  0  0  0  0  0  0  0  0  0  0  0
  1  2  1  0  0  0  0
  2  3  1  0  0  0  0
  3  4  1  0  0  0  0
  4  5  1  0  0  0  0
  6  5  1  0  0  0  0
  6  7  1  0  0  0  0
  7  8  1  0  0  0  0
  8  9  1  0  0  0  0
  9 10  1  0  0  0  0
 10 11  1  0  0  0  0
 12 11  1  0  0  0  0
 12 13  1  0  0  0  0
  1 14  1  0  0  0  0
 14 15  1  0  0  0  0
 14 16  1  0  0  0  0
 16 17  2  0  0  0  0
 13 18  1  0  0  0  0
  1 19  1  0  0  0  0
  1 20  1  0  0  0  0
  2 21  1  0  0  0  0
  2 22  1  0  0  0  0
  3 23  1  0  0  0  0
  3 24  1  0  0  0  0
  4 25  1  0  0  0  0
  4 26  1  0  0  0  0
  5 27  1  0  0  0  0
  5 28  1  0  0  0  0
  6 29  1  0  0  0  0
  6 30  1  0  0  0  0
  7 31  1  0  0  0  0
  7 32  1  0  0  0  0
  8 33  1  0  0  0  0
  8 34  1  0  0  0  0
  9 35  1  0  0  0  0
  9 36  1  0  0  0  0
 10 37  1  0  0  0  0
 10 38  1  0  0  0  0
 11 39  1  0  0  0  0
 11 40  1  0  0  0  0
 12 41  1  0  0  0  0
 12 42  1  0  0  0  0
 13 43  1  0  0  0  0
 13 44  1  0  0  0  0
 15 45  1  0  0  0  0
 15 46  1  0  0  0  0
 15 47  1  0  0  0  0
 18 48  1  0  0  0  0
 18 49  1  0  0  0  0
 18 50  1  0  0  0  0
M  END
>  <Substance ID> (579)
579

>  <Mouse_Female_Canc> (579)
ND

>  <SAL> (579)
ND

>  <Rat_Male_Canc> (579)
3

>  <TD50_Rat> (579)
1.65

>  <TD50_Mouse> (579)
ND

>  <Rat_Female_Canc> (579)
ND

>  <Canc> (579)
3

>  <MolWeight> (579)
256.43

>  <Mouse_Male_Canc> (579)
ND

>  <Mouse_Male_NTP> (579)
ND

>  <ChemName> (579)
N-nitroso-N-methyl-n-tetradecylamine

>  <Rat_Male_NTP> (579)
ND

>  <Reference> (579)
CPDB

>  <Formula> (579)
C15H32N2O

>  <SMILES> (579)
N(CCCCCCCCCCCCCC)(C)N=O

>  <Rat_Female_NTP> (579)
ND

>  <CAS> (579)
75881-20-8

>  <Mouse_Female_NTP> (579)
ND

>  <Synonyms> (579)
-

$$$$
580
 

 29 30  0  0  0  0  0  0  0  0999 V2000
    5.0188  -35.4605    0.5244 C   0  0  0  0  0  0  0  0  0  0  0  0
    5.1241  -36.7062   -0.3734 C   0  0  0  0  0  0  0  0  0  0  0  0
    6.5610  -37.0959   -0.7315 C   0  0  0  0  0  0  0  0  0  0  0  0
    7.6548  -36.2149   -0.4437 N   0  0  0  0  0  0  0  0  0  0  0  0
    7.4627  -34.9917    0.2679 C   0  0  0  0  0  0  0  0  0  0  0  0
    6.1713  -34.6389    0.7676 N   0  0  0  0  0  0  0  0  0  0  0  0
    3.9430  -35.1349    1.0444 O   0  0  0  0  0  0  0  0  0  0  0  0
    8.4283  -34.2467    0.4778 O   0  0  0  0  0  0  0  0  0  0  0  0
    6.7973  -38.1455   -1.3501 O   0  0  0  0  0  0  0  0  0  0  0  0
    4.2376  -37.9137    0.1235 C   0  0  0  0  0  0  0  0  0  0  0  0
    3.0276  -37.7356    0.6599 C   0  0  0  0  0  0  0  0  0  0  0  0
    2.7114  -40.1095    1.0258 C   0  0  0  0  0  0  0  0  0  0  0  0
    4.0385  -40.3254    0.4629 C   0  0  0  0  0  0  0  0  0  0  0  0
    2.2276  -38.8739    1.1194 C   0  0  0  0  0  0  0  0  0  0  0  0
    4.7590  -39.2909    0.0323 C   0  0  0  0  0  0  0  0  0  0  0  0
    4.5687  -36.2517   -1.7899 C   0  0  0  0  0  0  0  0  0  0  0  0
    3.1263  -35.6801   -1.8187 C   0  0  0  0  0  0  0  0  0  0  0  0
    8.5744  -36.4629   -0.7485 H   0  0  0  0  0  0  0  0  0  0  0  0
    6.0675  -33.7988    1.3001 H   0  0  0  0  0  0  0  0  0  0  0  0
    2.6613  -36.8094    0.7495 H   0  0  0  0  0  0  0  0  0  0  0  0
    2.1668  -40.8870    1.3403 H   0  0  0  0  0  0  0  0  0  0  0  0
    4.4089  -41.2522    0.3999 H   0  0  0  0  0  0  0  0  0  0  0  0
    1.3170  -38.7217    1.5037 H   0  0  0  0  0  0  0  0  0  0  0  0
    5.6658  -39.4499   -0.3582 H   0  0  0  0  0  0  0  0  0  0  0  0
    5.1820  -35.5457   -2.1440 H   0  0  0  0  0  0  0  0  0  0  0  0
    4.5918  -37.0479   -2.3945 H   0  0  0  0  0  0  0  0  0  0  0  0
    2.8854  -35.4291   -2.7562 H   0  0  0  0  0  0  0  0  0  0  0  0
    3.0764  -34.8703   -1.2340 H   0  0  0  0  0  0  0  0  0  0  0  0
    2.4863  -36.3720   -1.4845 H   0  0  0  0  0  0  0  0  0  0  0  0
  1  2  1  0  0  0  0
  1  6  1  0  0  0  0
  2  3  1  0  0  0  0
  3  4  1  0  0  0  0
  4  5  1  0  0  0  0
  5  6  1  0  0  0  0
  1  7  2  0  0  0  0
  5  8  2  0  0  0  0
  3  9  2  0  0  0  0
  2 10  1  0  0  0  0
 10 11  2  0  0  0  0
 12 13  1  0  0  0  0
 10 15  1  0  0  0  0
 11 14  1  0  0  0  0
 14 12  2  0  0  0  0
 13 15  2  0  0  0  0
  2 16  1  0  0  0  0
 16 17  1  0  0  0  0
  4 18  1  0  0  0  0
  6 19  1  0  0  0  0
 11 20  1  0  0  0  0
 12 21  1  0  0  0  0
 13 22  1  0  0  0  0
 14 23  1  0  0  0  0
 15 24  1  0  0  0  0
 16 25  1  0  0  0  0
 16 26  1  0  0  0  0
 17 27  1  0  0  0  0
 17 28  1  0  0  0  0
 17 29  1  0  0  0  0
M  END
>  <Substance ID> (580)
580

>  <Mouse_Female_Canc> (580)
3

>  <SAL> (580)
3

>  <Rat_Male_Canc> (580)
1

>  <TD50_Rat> (580)
NP

>  <TD50_Mouse> (580)
6.09

>  <Rat_Female_Canc> (580)
1

>  <Canc> (580)
3

>  <MolWeight> (580)
232.24

>  <Mouse_Male_Canc> (580)
3

>  <Mouse_Male_NTP> (580)
ND

>  <ChemName> (580)
Phenobarbital

>  <Rat_Male_NTP> (580)
ND

>  <Reference> (580)
CPDB

>  <Formula> (580)
C12H12N2O3

>  <SMILES> (580)
O=C1C(C2=CC=CC=C2)(C(=O)NC(=O)N1)CC

>  <Rat_Female_NTP> (580)
ND

>  <CAS> (580)
50-06-6

>  <Mouse_Female_NTP> (580)
ND

>  <Synonyms> (580)
5-ethyl-5-phenyl-2,4,6-(1H,3H,5H)pyrimidinetrione; 5-Ethyl-5-phenylbarbituric acid; bartol; bialminal; blu-phen; cabronal; calmetten; calminal; cardenal; codibarbita; coronaletta; cratecil; damoral; dezibarbitur; Donnazyme; Donphen; dormina; dormiral; doscalun; duneryl; ensobarb; ensodorm; epanal; epidorm; epilol; episedal; epsylone; eskabarb; etilfen; euneryl; fenbital; fenemal; fenobarbital; fenosed; fenylettae; gardenal; gardepanyl; glysoletten; Gustase-Plus; haplopan; haplos; helional; hennoletten; hypnaletten; hypnogen; hypnolone; hypnoltol; hypno-tablinetten; hysteps; lefebar; leonal; lephebar; lepinal; lepinaletten; linasen; liquital; lixophen; lubergal; lubrokal; Lumen; lumesettes; lumesyn; Luminal; lumofridetten; luphenil; luramin; molinal; neurobarb; nirvonal; noptil; nova-pheno; Nunol; Pamine PB; parkotal; amylofene; pharmetten; Phazyme-PB; phen-bar; phenemal; phenemalum; phenobal; phenobarb; phenobarbitalum; Phenobarbitol; Phenobarbitone; phenobarbituric acid; phenobarbyl; phenoluric; phenomet; phenonyl; phenylethylbarbiturate; Phenylethylbarbituric acid; phenylethylmalonylurea; phenyletten; phenylral; PHOB; polcominal; promptonal; sedicat; sedizorin; sedabar; seda-tablinen; Sedlyn; sedofen; sedonal; sedonettes; sedophen; sevenal; SK-Phenobarbital; Solfoton; sombutol; somnolens; somnoletten; somnosan; somonal; spasepilin; starifen; starilettae; stental; stental extentabs; talpheno; Tedral; teolaxin; teoloxin; theoloxin; theominal; triabarb; tridezibarbitur; triphenatol; Valprin 50-PB; versomnal; zadoletten; zadonal; 5-phenyl-5-ethylbarbituric acid; Adonal; aephenal; agrypnal; Antrocol; aphenylbarbit; aphenyletten; Arco-Lase Plus; austrominal; barbapil; barbellen; barbellon; barbenyl; barbilehae; barbinal; Barbipenyl; barbiphen; barbiphenyl; barbipil; barbita; barbivis; barbonal; barbophen; bardorm.

$$$$
581
 

 28 29  0  0  0  0  0  0  0  0999 V2000
    6.0409  -46.0291    0.4986 C   0  0  0  0  0  0  0  0  0  0  0  0
    6.0533  -47.3167   -0.3089 C   0  0  2  0  0  0  0  0  0  0  0  0
    7.4647  -47.8681   -0.4838 C   0  0  0  0  0  0  0  0  0  0  0  0
    8.5867  -47.0227   -0.2693 N   0  0  0  0  0  0  0  0  0  0  0  0
    8.4943  -45.8493    0.2393 C   0  0  0  0  0  0  0  0  0  0  0  0
    7.2450  -45.3209    0.6650 N   0  0  0  0  0  0  0  0  0  0  0  0
    7.6529  -49.0254   -0.9033 O   0  0  0  0  0  0  0  0  0  0  0  0
    9.6642  -45.0684    0.3910 O   0  5  0  0  0  0  0  0  0  0  0  0
    4.9931  -45.5882    1.0083 O   0  0  0  0  0  0  0  0  0  0  0  0
    5.7218  -46.8776   -1.7910 C   0  0  0  0  0  0  0  0  0  0  0  0
    4.3634  -46.1552   -1.9746 C   0  0  0  0  0  0  0  0  0  0  0  0
    4.9644  -48.3813    0.1131 C   0  0  0  0  0  0  0  0  0  0  0  0
    3.7956  -48.0177    0.6531 C   0  0  0  0  0  0  0  0  0  0  0  0
    3.0506  -50.3118    0.8767 C   0  0  0  0  0  0  0  0  0  0  0  0
    4.3236  -50.7321    0.3042 C   0  0  0  0  0  0  0  0  0  0  0  0
    2.7976  -49.0166    1.0416 C   0  0  0  0  0  0  0  0  0  0  0  0
    5.2250  -49.8225   -0.0612 C   0  0  0  0  0  0  0  0  0  0  0  0
    7.2215  -44.4187    1.0956 H   0  0  0  0  0  0  0  0  0  0  0  0
    6.4451  -46.2600   -2.1001 H   0  0  0  0  0  0  0  0  0  0  0  0
    5.7161  -47.6978   -2.3631 H   0  0  0  0  0  0  0  0  0  0  0  0
    4.2398  -45.9163   -2.9377 H   0  0  0  0  0  0  0  0  0  0  0  0
    4.3506  -45.3225   -1.4209 H   0  0  0  0  0  0  0  0  0  0  0  0
    3.6218  -46.7598   -1.6838 H   0  0  0  0  0  0  0  0  0  0  0  0
    3.6001  -47.0472    0.7939 H   0  0  0  0  0  0  0  0  0  0  0  0
    2.3705  -50.9943    1.1442 H   0  0  0  0  0  0  0  0  0  0  0  0
    4.5203  -51.7053    0.1856 H   0  0  0  0  0  0  0  0  0  0  0  0
    1.9244  -48.7243    1.4316 H   0  0  0  0  0  0  0  0  0  0  0  0
    6.0921  -50.1213   -0.4600 H   0  0  0  0  0  0  0  0  0  0  0  0
  1  2  1  0  0  0  0
  1  6  1  0  0  0  0
  2  3  1  0  0  0  0
  3  4  1  0  0  0  0
  4  5  2  0  0  0  0
  5  6  1  0  0  0  0
  3  7  2  0  0  0  0
  5  8  1  0  0  0  0
  1  9  2  0  0  0  0
  2 10  1  0  0  0  0
 10 11  1  0  0  0  0
  2 12  1  0  0  0  0
 12 13  2  0  0  0  0
 14 15  1  0  0  0  0
 12 17  1  0  0  0  0
 13 16  1  0  0  0  0
 16 14  2  0  0  0  0
 15 17  2  0  0  0  0
  6 18  1  0  0  0  0
 10 19  1  0  0  0  0
 10 20  1  0  0  0  0
 11 21  1  0  0  0  0
 11 22  1  0  0  0  0
 11 23  1  0  0  0  0
 13 24  1  0  0  0  0
 14 25  1  0  0  0  0
 15 26  1  0  0  0  0
 16 27  1  0  0  0  0
 17 28  1  0  0  0  0
M  END
>  <Substance ID> (581)
581

>  <Mouse_Female_Canc> (581)
3

>  <SAL> (581)
1

>  <Rat_Male_Canc> (581)
3

>  <TD50_Rat> (581)
86

>  <TD50_Mouse> (581)
29.7

>  <Rat_Female_Canc> (581)
3

>  <Canc> (581)
3

>  <MolWeight> (581)
254.22

>  <Mouse_Male_Canc> (581)
3

>  <Mouse_Male_NTP> (581)
ND

>  <ChemName> (581)
Phenobarbital Sodium

>  <Rat_Male_NTP> (581)
ND

>  <Reference> (581)
CPDB

>  <Formula> (581)
C12H11N2O3Na

>  <SMILES> (581)
C1(C2=CC=CC=C2)(C(NC(=NC1=O)[O-])=O)CC.[Na+]

>  <Rat_Female_NTP> (581)
ND

>  <CAS> (581)
57-30-7

>  <Mouse_Female_NTP> (581)
ND

>  <Synonyms> (581)
5-ethyl-5-phenyl-2,4,6-(1H,3H,5H)pyrimidinetrione monosodium salt; PBS; phenobarbital elixir; phenobarbital na; sodium 5-ethyl-5-phenylbarbiturate; sodium ethylphenylbarbiturate; gardenal sodium; Sodium luminal; phenobal sodium; Phenobarbitone, sodium salt; sodium phenylethylbarbiturate; phenylethylbarbituric acid, sodium salt; sodium phenylethylmalonyurea; 5-ethyl-5-phenylbarbituric acid sodium sodium; sol phenobarbital; sol phenobarbitone; soluble phenobarbital; soluble phenobarbitone.

$$$$
582
 

 21 21  0  0  0  0  0  0  0  0999 V2000
    5.9657  -62.3583    0.0002 C   0  0  0  0  0  0  0  0  0  0  0  0
    7.1746  -61.6059   -0.0006 N   0  0  0  0  0  0  0  0  0  0  0  0
    7.1025  -60.1846    0.0002 C   0  0  0  0  0  0  0  0  0  0  0  0
    5.8227  -59.5438    0.0003 N   0  0  0  0  0  0  0  0  0  0  0  0
    4.6175  -60.3317   -0.0001 C   0  0  0  0  0  0  0  0  0  0  0  0
    4.6760  -61.6644    0.0005 C   0  0  0  0  0  0  0  0  0  0  0  0
    6.0041  -63.5942    0.0004 O   0  0  0  0  0  0  0  0  0  0  0  0
    8.4134  -59.3307    0.0005 S   0  0  0  0  0  0  0  0  0  0  0  0
    3.2770  -59.6517    0.0000 C   0  0  0  0  0  0  0  0  0  0  0  0
    3.4629  -58.1233    0.0001 C   0  0  0  0  0  0  0  0  0  0  0  0
    2.0811  -57.4408    0.0000 C   0  0  0  0  0  0  0  0  0  0  0  0
    8.0608  -62.0692   -0.0018 H   0  0  0  0  0  0  0  0  0  0  0  0
    5.7654  -58.5454    0.0007 H   0  0  0  0  0  0  0  0  0  0  0  0
    3.8290  -62.1960    0.0011 H   0  0  0  0  0  0  0  0  0  0  0  0
    2.7677  -59.9234   -0.8166 H   0  0  0  0  0  0  0  0  0  0  0  0
    2.7679  -59.9235    0.8167 H   0  0  0  0  0  0  0  0  0  0  0  0
    3.9706  -57.8490    0.8167 H   0  0  0  0  0  0  0  0  0  0  0  0
    3.9707  -57.8489   -0.8165 H   0  0  0  0  0  0  0  0  0  0  0  0
    2.1992  -56.4479    0.0001 H   0  0  0  0  0  0  0  0  0  0  0  0
    1.5731  -57.7156    0.8164 H   0  0  0  0  0  0  0  0  0  0  0  0
    1.5731  -57.7155   -0.8164 H   0  0  0  0  0  0  0  0  0  0  0  0
  1  2  1  0  0  0  0
  1  6  1  0  0  0  0
  2  3  1  0  0  0  0
  3  4  1  0  0  0  0
  4  5  1  0  0  0  0
  5  6  2  0  0  0  0
  1  7  2  0  0  0  0
  3  8  2  0  0  0  0
  5  9  1  0  0  0  0
  9 10  1  0  0  0  0
 10 11  1  0  0  0  0
  2 12  1  0  0  0  0
  4 13  1  0  0  0  0
  6 14  1  0  0  0  0
  9 15  1  0  0  0  0
  9 16  1  0  0  0  0
 10 17  1  0  0  0  0
 10 18  1  0  0  0  0
 11 19  1  0  0  0  0
 11 20  1  0  0  0  0
 11 21  1  0  0  0  0
M  END
>  <Substance ID> (582)
582

>  <Mouse_Female_Canc> (582)
3

>  <SAL> (582)
ND

>  <Rat_Male_Canc> (582)
3

>  <TD50_Rat> (582)
13.7

>  <TD50_Mouse> (582)
409

>  <Rat_Female_Canc> (582)
3

>  <Canc> (582)
3

>  <MolWeight> (582)
170.23

>  <Mouse_Male_Canc> (582)
3

>  <Mouse_Male_NTP> (582)
ND

>  <ChemName> (582)
Propylthiouracil

>  <Rat_Male_NTP> (582)
ND

>  <Reference> (582)
CPDB

>  <Formula> (582)
C7H10N2OS

>  <SMILES> (582)
O=C1C=C(NC(=S)N1)CCC

>  <Rat_Female_NTP> (582)
ND

>  <CAS> (582)
51-52-5

>  <Mouse_Female_NTP> (582)
ND

>  <Synonyms> (582)
2,3-dihydro-6-propyl-2-thioxo-4(1H)-Pyrimidinone; 2-mercapto-6-propylpyrimid-4-one; 4-hydroxy-2-mercapto-6-propylpyrimidine; 6-n-propyl-2-thiouracil; 6-propyl-2-thiopyrimidine-2,4(1H,3H)-dione; 6-Propyl-2-thiouracil; 6-propylthiouracil; procasil; propacil; propycil; propyl-thiorist; propylthiorit; prothiucil; prothiurone; prothycil; prothyran; protiural; ptu(thyreostatic); T 72; thiuragyl; thyreostat ii; thyreostat propyl-thyracil.

$$$$
583
 

 44 45  0  0  0  0  0  0  0  0999 V2000
   10.0560  -67.9883    0.2057 C   0  0  0  0  0  0  0  0  0  0  0  0
    8.8241  -67.1482   -0.1738 C   0  0  1  0  0  0  0  0  0  0  0  0
    7.5803  -67.9120    0.1265 N   0  3  1  0  0  0  0  0  0  0  0  0
    6.4283  -67.0269   -0.3206 C   0  0  0  0  0  0  0  0  0  0  0  0
    4.9550  -67.4689   -0.1058 C   0  0  0  0  0  0  0  0  0  0  0  0
   11.2626  -67.3036   -0.1096 O   0  0  0  0  0  0  0  0  0  0  0  0
    2.2448  -68.1466    0.2310 C   0  0  0  0  0  0  0  0  0  0  0  0
    3.1932  -69.0451    0.4780 C   0  0  0  0  0  0  0  0  0  0  0  0
    3.8997  -66.4837   -0.3730 C   0  0  0  0  0  0  0  0  0  0  0  0
    4.5998  -68.6853    0.3086 C   0  0  0  0  0  0  0  0  0  0  0  0
    2.6164  -66.8037   -0.2091 C   0  0  0  0  0  0  0  0  0  0  0  0
    7.6738  -69.2053   -0.6250 C   0  0  0  0  0  0  0  0  0  0  0  0
    7.3857  -70.4068    0.3280 C   0  0  0  0  0  0  0  0  0  0  0  0
    7.4407  -71.9153   -0.5745 Cl  0  0  0  0  0  0  0  0  0  0  0  0
    8.8439  -65.8088    0.5958 C   0  0  0  0  0  0  0  0  0  0  0  0
   12.3582  -68.1899   -0.0230 C   0  0  0  0  0  0  0  0  0  0  0  0
   12.1670  -69.4770    0.2915 C   0  0  0  0  0  0  0  0  0  0  0  0
   14.5304  -69.9558    0.1129 C   0  0  0  0  0  0  0  0  0  0  0  0
   14.7473  -68.5463   -0.2285 C   0  0  0  0  0  0  0  0  0  0  0  0
   13.3000  -70.3970    0.3621 C   0  0  0  0  0  0  0  0  0  0  0  0
   13.7145  -67.7075   -0.2930 C   0  0  0  0  0  0  0  0  0  0  0  0
   10.0338  -68.1743    1.1880 H   0  0  0  0  0  0  0  0  0  0  0  0
   10.0298  -68.8517   -0.2982 H   0  0  0  0  0  0  0  0  0  0  0  0
    8.8461  -66.9499   -1.1537 H   0  0  0  0  0  0  0  0  0  0  0  0
    7.4456  -68.1366    1.0916 H   0  0  0  0  0  0  0  0  0  0  0  0
    6.5368  -66.1551    0.1572 H   0  0  0  0  0  0  0  0  0  0  0  0
    6.5428  -66.8852   -1.3038 H   0  0  0  0  0  0  0  0  0  0  0  0
    1.2814  -68.3888    0.3459 H   0  0  0  0  0  0  0  0  0  0  0  0
    2.9446  -69.9657    0.7791 H   0  0  0  0  0  0  0  0  0  0  0  0
    4.1461  -65.5646   -0.6807 H   0  0  0  0  0  0  0  0  0  0  0  0
    5.3078  -69.3632    0.5070 H   0  0  0  0  0  0  0  0  0  0  0  0
    1.9059  -66.1230   -0.3878 H   0  0  0  0  0  0  0  0  0  0  0  0
    7.0034  -69.2048   -1.3671 H   0  0  0  0  0  0  0  0  0  0  0  0
    8.5935  -69.2997   -1.0061 H   0  0  0  0  0  0  0  0  0  0  0  0
    8.0757  -70.4284    1.0516 H   0  0  0  0  0  0  0  0  0  0  0  0
    6.4788  -70.2969    0.7347 H   0  0  0  0  0  0  0  0  0  0  0  0
    8.0412  -65.2678    0.3449 H   0  0  0  0  0  0  0  0  0  0  0  0
    9.6734  -65.3017    0.3619 H   0  0  0  0  0  0  0  0  0  0  0  0
    8.8298  -65.9887    1.5794 H   0  0  0  0  0  0  0  0  0  0  0  0
   11.2433  -69.8108    0.4793 H   0  0  0  0  0  0  0  0  0  0  0  0
   15.3064  -70.5849    0.1584 H   0  0  0  0  0  0  0  0  0  0  0  0
   15.6723  -68.2141   -0.4131 H   0  0  0  0  0  0  0  0  0  0  0  0
   13.1508  -71.3574    0.5975 H   0  0  0  0  0  0  0  0  0  0  0  0
   13.8654  -66.7469   -0.5263 H   0  0  0  0  0  0  0  0  0  0  0  0
  1  2  1  0  0  0  0
  2  3  1  0  0  0  0
  3  4  1  0  0  0  0
  4  5  1  0  0  0  0
  1  6  1  0  0  0  0
  7  8  2  0  0  0  0
  5  9  1  0  0  0  0
  7 11  1  0  0  0  0
  8 10  1  0  0  0  0
 10  5  2  0  0  0  0
  9 11  2  0  0  0  0
  3 12  1  0  0  0  0
 12 13  1  0  0  0  0
 13 14  1  0  0  0  0
  2 15  1  0  0  0  0
  6 16  1  0  0  0  0
 16 17  2  0  0  0  0
 18 19  1  0  0  0  0
 16 21  1  0  0  0  0
 17 20  1  0  0  0  0
 20 18  2  0  0  0  0
 19 21  2  0  0  0  0
  1 22  1  0  0  0  0
  1 23  1  0  0  0  0
  2 24  1  0  0  0  0
  3 25  1  0  0  0  0
  4 26  1  0  0  0  0
  4 27  1  0  0  0  0
  7 28  1  0  0  0  0
  8 29  1  0  0  0  0
  9 30  1  0  0  0  0
 10 31  1  0  0  0  0
 11 32  1  0  0  0  0
 12 33  1  0  0  0  0
 12 34  1  0  0  0  0
 13 35  1  0  0  0  0
 13 36  1  0  0  0  0
 15 37  1  0  0  0  0
 15 38  1  0  0  0  0
 15 39  1  0  0  0  0
 17 40  1  0  0  0  0
 18 41  1  0  0  0  0
 19 42  1  0  0  0  0
 20 43  1  0  0  0  0
 21 44  1  0  0  0  0
M  END
>  <Substance ID> (583)
583

>  <Mouse_Female_Canc> (583)
3

>  <SAL> (583)
3

>  <Rat_Male_Canc> (583)
3

>  <TD50_Rat> (583)
1.09

>  <TD50_Mouse> (583)
5.36

>  <Rat_Female_Canc> (583)
3

>  <Canc> (583)
3

>  <MolWeight> (583)
340.33

>  <Mouse_Male_Canc> (583)
3

>  <Mouse_Male_NTP> (583)
ND

>  <ChemName> (583)
Phenoxybenzamine Hydrochloride

>  <Rat_Male_NTP> (583)
ND

>  <Reference> (583)
NTP72

>  <Formula> (583)
C18H22ClNO.HCl

>  <SMILES> (583)
[Cl-].ClCC[NH+](C(COc1ccccc1)C)Cc2ccccc2

>  <Rat_Female_NTP> (583)
ND

>  <CAS> (583)
63-92-3

>  <Mouse_Female_NTP> (583)
ND

>  <Synonyms> (583)
2-(N-benzyl-2-chloroethylamino)-1-phenoxypropane hydrochloride; 688A; bensylyt nen; benzyl(2-chloroethyl)(1-methyl-2-phenoxyethyl)amine hydrochloride; benzylyt; dibenylin; dibenzyline; Dibenzyline hydrochloride; fenoxybenzamin; N-(2-chloroethyl)-N-(1-methyl-2-phenoxyethyl)benzenemethanamine hydrochloride; N-(2-chloroethyl)-N-(1-methyl-2-phenoxyethyl)benzylamine hydrochloride; N-2-phenoxyisopropyl-N-benzyl-chloroethylamine hydrochloride; N-phenoxyisopropyl-N-benzyl-beta-chloroethylamine hydrochloride; phenoxybenzamide hydrochloride; PhenoxybenzamineHCl.

$$$$
584
 

 22 22  0  0  0  0  0  0  0  0999 V2000
    3.8214  -54.7557    0.5992 C   0  0  0  0  0  0  0  0  0  0  0  0
    4.4430  -57.0356   -0.0486 O   0  0  0  0  0  0  0  0  0  0  0  0
    7.2242  -56.3870    0.1270 N   0  0  0  0  0  0  0  0  0  0  0  0
    4.9303  -55.6575    0.0267 C   0  0  1  0  0  0  0  0  0  0  0  0
    6.7800  -57.5528   -0.6902 C   0  0  0  0  0  0  0  0  0  0  0  0
    5.4939  -58.0551   -0.0312 C   0  0  1  0  0  0  0  0  0  0  0  0
    4.9736  -59.3349   -0.7105 C   0  0  0  0  0  0  0  0  0  0  0  0
    6.2174  -55.5571    0.8489 C   0  0  0  0  0  0  0  0  0  0  0  0
    8.5483  -56.0814    0.2132 N   0  0  0  0  0  0  0  0  0  0  0  0
    9.3396  -56.7374   -0.3570 O   0  0  0  0  0  0  0  0  0  0  0  0
    2.9969  -54.8448    0.0404 H   0  0  0  0  0  0  0  0  0  0  0  0
    4.1278  -53.8038    0.5910 H   0  0  0  0  0  0  0  0  0  0  0  0
    3.6182  -55.0320    1.5386 H   0  0  0  0  0  0  0  0  0  0  0  0
    5.1585  -55.3455   -0.8956 H   0  0  0  0  0  0  0  0  0  0  0  0
    7.4777  -58.2692   -0.6835 H   0  0  0  0  0  0  0  0  0  0  0  0
    6.6012  -57.2699   -1.6325 H   0  0  0  0  0  0  0  0  0  0  0  0
    5.7251  -58.2629    0.9192 H   0  0  0  0  0  0  0  0  0  0  0  0
    5.6894  -60.0330   -0.7001 H   0  0  0  0  0  0  0  0  0  0  0  0
    4.7207  -59.1316   -1.6565 H   0  0  0  0  0  0  0  0  0  0  0  0
    4.1721  -59.6726   -0.2169 H   0  0  0  0  0  0  0  0  0  0  0  0
    6.0699  -55.9128    1.7718 H   0  0  0  0  0  0  0  0  0  0  0  0
    6.5233  -54.6065    0.9025 H   0  0  0  0  0  0  0  0  0  0  0  0
  2  6  1  0  0  0  0
  6  5  1  0  0  0  0
  5  3  1  0  0  0  0
  3  8  1  0  0  0  0
  8  4  1  0  0  0  0
  4  2  1  0  0  0  0
  4  1  1  1  0  0  0
  6  7  1  6  0  0  0
  3  9  1  0  0  0  0
  9 10  2  0  0  0  0
  1 11  1  0  0  0  0
  1 12  1  0  0  0  0
  1 13  1  0  0  0  0
  4 14  1  0  0  0  0
  5 15  1  0  0  0  0
  5 16  1  0  0  0  0
  6 17  1  0  0  0  0
  7 18  1  0  0  0  0
  7 19  1  0  0  0  0
  7 20  1  0  0  0  0
  8 21  1  0  0  0  0
  8 22  1  0  0  0  0
M  END
>  <Substance ID> (584)
584

>  <Mouse_Female_Canc> (584)
ND

>  <SAL> (584)
3

>  <Rat_Male_Canc> (584)
3

>  <TD50_Rat> (584)
ND

>  <TD50_Mouse> (584)
ND

>  <Rat_Female_Canc> (584)
3

>  <Canc> (584)
3

>  <MolWeight> (584)
144.17

>  <Mouse_Male_Canc> (584)
ND

>  <Mouse_Male_NTP> (584)
ND

>  <ChemName> (584)
N-Nitroso-2,6-dimethylmorpholine

>  <Rat_Male_NTP> (584)
ND

>  <Reference> (584)
Toxnet

>  <Formula> (584)
C6H12N2O2 

>  <SMILES> (584)
O=NN1C[C@@H](O[C@@H](C)C1)C

>  <Rat_Female_NTP> (584)
ND

>  <CAS> (584)
1456-28-6

>  <Mouse_Female_NTP> (584)
ND

>  <Synonyms> (584)
2,6-Dimethyl-N-nitrosomorpholine.

$$$$
585
 

 13 12  0  0  0  0  0  0  0  0999 V2000
   37.0225   -2.2491   -0.3775 C   0  0  0  0  0  0  0  0  0  0  0  0
   36.1074   -1.1432    0.1796 C   0  0  0  0  0  0  0  0  0  0  0  0
   36.5823   -3.6460    0.0981 C   0  0  0  0  0  0  0  0  0  0  0  0
   38.4544   -1.9893   -0.0087 C   0  0  0  0  0  0  0  0  0  0  0  0
   39.2431   -2.9338    0.1094 O   0  0  0  0  0  0  0  0  0  0  0  0
   36.9426   -2.2319   -1.3742 H   0  0  0  0  0  0  0  0  0  0  0  0
   36.4220   -0.2527   -0.1487 H   0  0  0  0  0  0  0  0  0  0  0  0
   36.1357   -1.1585    1.1791 H   0  0  0  0  0  0  0  0  0  0  0  0
   35.1691   -1.2993   -0.1293 H   0  0  0  0  0  0  0  0  0  0  0  0
   37.1971   -4.3371   -0.2818 H   0  0  0  0  0  0  0  0  0  0  0  0
   35.6484   -3.8251   -0.2115 H   0  0  0  0  0  0  0  0  0  0  0  0
   36.6150   -3.6843    1.0968 H   0  0  0  0  0  0  0  0  0  0  0  0
   38.7701   -1.0524    0.1413 H   0  0  0  0  0  0  0  0  0  0  0  0
  1  2  1  0  0  0  0
  1  3  1  0  0  0  0
  1  4  1  0  0  0  0
  4  5  2  0  0  0  0
  1  6  1  0  0  0  0
  2  7  1  0  0  0  0
  2  8  1  0  0  0  0
  2  9  1  0  0  0  0
  3 10  1  0  0  0  0
  3 11  1  0  0  0  0
  3 12  1  0  0  0  0
  4 13  1  0  0  0  0
M  END
>  <Substance ID> (585)
585

>  <Mouse_Female_Canc> (585)
1

>  <SAL> (585)
2

>  <Rat_Male_Canc> (585)
1

>  <TD50_Rat> (585)
NP

>  <TD50_Mouse> (585)
NP

>  <Rat_Female_Canc> (585)
1

>  <Canc> (585)
1

>  <MolWeight> (585)
72.11

>  <Mouse_Male_Canc> (585)
1

>  <Mouse_Male_NTP> (585)
NE

>  <ChemName> (585)
Isobutyraldehyde

>  <Rat_Male_NTP> (585)
NE

>  <Reference> (585)
NTP472

>  <Formula> (585)
C4H8O

>  <SMILES> (585)
O=CC(C)C

>  <Rat_Female_NTP> (585)
NE

>  <CAS> (585)
78-84-2

>  <Mouse_Female_NTP> (585)
NE

>  <Synonyms> (585)
2-methyl-1-propanal; 2-Methylpropanal; 2-Methylpropionaldehyde; alpha-methylpropionaldehyde; Butyric iso aldehyde; Isobutaldehyde; Isobutanal; isobutyric aldehyde; isobutyryl aldehyde; isobutyl aldehyde; isopropyl aldehyde; isopropyl formaldehyde; Methyl Propanal.

$$$$
586
 

 18 18  0  0  0  0  0  0  0  0999 V2000
   39.4544  -11.4294   -0.0009 C   0  0  0  0  0  0  0  0  0  0  0  0
   39.7807  -12.7205   -0.0007 C   0  0  0  0  0  0  0  0  0  0  0  0
   42.1460  -12.1936   -0.0003 C   0  0  0  0  0  0  0  0  0  0  0  0
   41.7880  -10.7764    0.0001 C   0  0  0  0  0  0  0  0  0  0  0  0
   41.1902  -13.1207   -0.0005 C   0  0  0  0  0  0  0  0  0  0  0  0
   40.5065  -10.4099    0.0002 C   0  0  0  0  0  0  0  0  0  0  0  0
   40.1380   -8.9527    0.0009 C   0  0  0  0  0  0  0  0  0  0  0  0
   41.4157   -8.0895   -0.0008 C   0  0  0  0  0  0  0  0  0  0  0  0
   38.4925  -11.1562   -0.0019 H   0  0  0  0  0  0  0  0  0  0  0  0
   39.0634  -13.4172   -0.0006 H   0  0  0  0  0  0  0  0  0  0  0  0
   43.1080  -12.4666   -0.0005 H   0  0  0  0  0  0  0  0  0  0  0  0
   42.5060  -10.0804    0.0004 H   0  0  0  0  0  0  0  0  0  0  0  0
   41.4345  -14.0904   -0.0004 H   0  0  0  0  0  0  0  0  0  0  0  0
   39.5976   -8.7469   -0.8149 H   0  0  0  0  0  0  0  0  0  0  0  0
   39.5999   -8.7471    0.8183 H   0  0  0  0  0  0  0  0  0  0  0  0
   41.1646   -7.1216   -0.0003 H   0  0  0  0  0  0  0  0  0  0  0  0
   41.9550   -8.2930   -0.8180 H   0  0  0  0  0  0  0  0  0  0  0  0
   41.9573   -8.2933    0.8148 H   0  0  0  0  0  0  0  0  0  0  0  0
  1  2  2  0  0  0  0
  3  4  1  0  0  0  0
  1  6  1  0  0  0  0
  2  5  1  0  0  0  0
  5  3  2  0  0  0  0
  4  6  2  0  0  0  0
  6  7  1  0  0  0  0
  7  8  1  0  0  0  0
  1  9  1  0  0  0  0
  2 10  1  0  0  0  0
  3 11  1  0  0  0  0
  4 12  1  0  0  0  0
  5 13  1  0  0  0  0
  7 14  1  0  0  0  0
  7 15  1  0  0  0  0
  8 16  1  0  0  0  0
  8 17  1  0  0  0  0
  8 18  1  0  0  0  0
M  END
>  <Substance ID> (586)
586

>  <Mouse_Female_Canc> (586)
3

>  <SAL> (586)
1

>  <Rat_Male_Canc> (586)
3

>  <TD50_Rat> (586)
4350

>  <TD50_Mouse> (586)
ND

>  <Rat_Female_Canc> (586)
3

>  <Canc> (586)
3

>  <MolWeight> (586)
106.17

>  <Mouse_Male_Canc> (586)
3

>  <Mouse_Male_NTP> (586)
SE

>  <ChemName> (586)
Ethylbenzene

>  <Rat_Male_NTP> (586)
CE

>  <Reference> (586)
NTP466

>  <Formula> (586)
C8H10

>  <SMILES> (586)
CCC1=CC=CC=C1

>  <Rat_Female_NTP> (586)
SE

>  <CAS> (586)
100-41-4

>  <Mouse_Female_NTP> (586)
SE

>  <Synonyms> (586)
EB; Ethyl Benzene; ethylbenzol; Ethylenzene; phenylethane.

$$$$
587
 

 19 20  0  0  0  0  0  0  0  0999 V2000
   38.1197  -19.2804   -0.0008 C   0  0  0  0  0  0  0  0  0  0  0  0
   38.1477  -20.6100   -0.0005 C   0  0  0  0  0  0  0  0  0  0  0  0
   39.3666  -21.2858   -0.0012 N   0  0  0  0  0  0  0  0  0  0  0  0
   39.3741  -18.5431   -0.0019 C   0  0  0  0  0  0  0  0  0  0  0  0
   40.5142  -19.2236   -0.0013 C   0  0  0  0  0  0  0  0  0  0  0  0
   40.4825  -20.6681   -0.0017 C   0  0  0  0  0  0  0  0  0  0  0  0
   42.9075  -20.7205    0.0022 C   0  0  0  0  0  0  0  0  0  0  0  0
   42.9287  -19.2430    0.0007 C   0  0  0  0  0  0  0  0  0  0  0  0
   41.7566  -21.3980    0.0009 C   0  0  0  0  0  0  0  0  0  0  0  0
   41.7978  -18.5361   -0.0004 C   0  0  0  0  0  0  0  0  0  0  0  0
   41.7799  -22.8026    0.0017 N   0  3  0  0  0  0  0  0  0  0  0  0
   40.6506  -23.4980    0.0004 O   0  5  0  0  0  0  0  0  0  0  0  0
   42.8092  -23.3705    0.0016 O   0  0  0  0  0  0  0  0  0  0  0  0
   37.2466  -18.7929   -0.0003 H   0  0  0  0  0  0  0  0  0  0  0  0
   37.2914  -21.1265    0.0001 H   0  0  0  0  0  0  0  0  0  0  0  0
   39.3774  -17.5431   -0.0031 H   0  0  0  0  0  0  0  0  0  0  0  0
   43.7720  -21.2230    0.0041 H   0  0  0  0  0  0  0  0  0  0  0  0
   43.8069  -18.7645    0.0005 H   0  0  0  0  0  0  0  0  0  0  0  0
   41.8312  -17.5366   -0.0007 H   0  0  0  0  0  0  0  0  0  0  0  0
  1  2  2  0  0  0  0
  1  4  1  0  0  0  0
  2  3  1  0  0  0  0
  3  6  2  0  0  0  0
  5  4  2  0  0  0  0
  5  6  1  0  0  0  0
  7  8  1  0  0  0  0
  5 10  1  0  0  0  0
  6  9  1  0  0  0  0
  9  7  2  0  0  0  0
  8 10  2  0  0  0  0
  9 11  1  0  0  0  0
 11 12  1  0  0  0  0
 11 13  2  0  0  0  0
  1 14  1  0  0  0  0
  2 15  1  0  0  0  0
  4 16  1  0  0  0  0
  7 17  1  0  0  0  0
  8 18  1  0  0  0  0
 10 19  1  0  0  0  0
M  END
>  <Substance ID> (587)
587

>  <Mouse_Female_Canc> (587)
ND

>  <SAL> (587)
3

>  <Rat_Male_Canc> (587)
3

>  <TD50_Rat> (587)
9.82

>  <TD50_Mouse> (587)
ND

>  <Rat_Female_Canc> (587)
3

>  <Canc> (587)
3

>  <MolWeight> (587)
174.16

>  <Mouse_Male_Canc> (587)
ND

>  <Mouse_Male_NTP> (587)
ND

>  <ChemName> (587)
8-Nitroquinoline

>  <Rat_Male_NTP> (587)
ND

>  <Reference> (587)
CPDB

>  <Formula> (587)
C9H6N2O2

>  <SMILES> (587)
O=[N+](C1=CC=CC2=CC=CN=C12)[O-]

>  <Rat_Female_NTP> (587)
ND

>  <CAS> (587)
607-35-2

>  <Mouse_Female_NTP> (587)
ND

>  <Synonyms> (587)
-

$$$$
588
  

 27 26  0  0  0  0  0  0  0  0999 V2000
   44.1517  -37.1885   -0.0005 C   0  0  0  0  0  0  0  0  0  0  0  0
   42.8822  -36.4647   -0.0002 C   0  0  0  0  0  0  0  0  0  0  0  0
   41.7225  -37.1211    0.0005 C   0  0  0  0  0  0  0  0  0  0  0  0
   40.4380  -36.3393    0.0007 C   0  0  0  0  0  0  0  0  0  0  0  0
   39.2082  -37.2693   -0.0001 C   0  0  0  0  0  0  0  0  0  0  0  0
   37.9747  -36.4055   -0.0016 C   0  0  0  0  0  0  0  0  0  0  0  0
   36.7556  -36.9405   -0.0001 C   0  0  0  0  0  0  0  0  0  0  0  0
   35.5499  -36.0433    0.0012 C   0  0  0  0  0  0  0  0  0  0  0  0
   36.5802  -38.4308   -0.0003 C   0  0  0  0  0  0  0  0  0  0  0  0
   45.2169  -36.5593   -0.0002 O   0  0  0  0  0  0  0  0  0  0  0  0
   41.7033  -38.6234    0.0006 C   0  0  0  0  0  0  0  0  0  0  0  0
   44.1594  -38.1885   -0.0011 H   0  0  0  0  0  0  0  0  0  0  0  0
   42.8837  -35.4647   -0.0005 H   0  0  0  0  0  0  0  0  0  0  0  0
   40.4087  -35.7633    0.8176 H   0  0  0  0  0  0  0  0  0  0  0  0
   40.4091  -35.7624   -0.8157 H   0  0  0  0  0  0  0  0  0  0  0  0
   39.2195  -37.8467   -0.8165 H   0  0  0  0  0  0  0  0  0  0  0  0
   39.2179  -37.8460    0.8168 H   0  0  0  0  0  0  0  0  0  0  0  0
   38.0732  -35.4104   -0.0038 H   0  0  0  0  0  0  0  0  0  0  0  0
   34.7194  -36.6003    0.0023 H   0  0  0  0  0  0  0  0  0  0  0  0
   35.5625  -35.4661   -0.8153 H   0  0  0  0  0  0  0  0  0  0  0  0
   35.5644  -35.4658    0.8175 H   0  0  0  0  0  0  0  0  0  0  0  0
   35.6051  -38.6521    0.0010 H   0  0  0  0  0  0  0  0  0  0  0  0
   37.0104  -38.8176    0.8154 H   0  0  0  0  0  0  0  0  0  0  0  0
   37.0081  -38.8171   -0.8174 H   0  0  0  0  0  0  0  0  0  0  0  0
   40.7565  -38.9451    0.0012 H   0  0  0  0  0  0  0  0  0  0  0  0
   42.1707  -38.9632    0.8167 H   0  0  0  0  0  0  0  0  0  0  0  0
   42.1698  -38.9632   -0.8161 H   0  0  0  0  0  0  0  0  0  0  0  0
  1  2  1  0  0  0  0
  2  3  2  0  0  0  0
  3  4  1  0  0  0  0
  4  5  1  0  0  0  0
  6  5  1  0  0  0  0
  6  7  2  0  0  0  0
  7  8  1  0  0  0  0
  7  9  1  0  0  0  0
  1 10  2  0  0  0  0
  3 11  1  0  0  0  0
  1 12  1  0  0  0  0
  2 13  1  0  0  0  0
  4 14  1  0  0  0  0
  4 15  1  0  0  0  0
  5 16  1  0  0  0  0
  5 17  1  0  0  0  0
  6 18  1  0  0  0  0
  8 19  1  0  0  0  0
  8 20  1  0  0  0  0
  8 21  1  0  0  0  0
  9 22  1  0  0  0  0
  9 23  1  0  0  0  0
  9 24  1  0  0  0  0
 11 25  1  0  0  0  0
 11 26  1  0  0  0  0
 11 27  1  0  0  0  0
M  END
>  <Substance ID> (588)
588

>  <Mouse_Female_Canc> (588)
2

>  <SAL> (588)
1

>  <Rat_Male_Canc> (588)
1

>  <TD50_Rat> (588)
NP

>  <TD50_Mouse> (588)
NP

>  <Rat_Female_Canc> (588)
1

>  <Canc> (588)
2

>  <MolWeight> (588)
152.24

>  <Mouse_Male_Canc> (588)
1

>  <Mouse_Male_NTP> (588)
NE

>  <ChemName> (588)
Citral

>  <Rat_Male_NTP> (588)
NE

>  <Reference> (588)
NTP505

>  <Formula> (588)
C10H16O

>  <SMILES> (588)
O=C/C=C(/CC/C=C(/C)C)C

>  <Rat_Female_NTP> (588)
NE

>  <CAS> (588)
5392-40-5

>  <Mouse_Female_NTP> (588)
EE

>  <Synonyms> (588)
3,7-Dimethyl-2,6-octadienal; cis-3,7-Dimethyl-2,6-octadienal; cis-Citral; cis/trans-3,7-Dimethyl-2,6-octadienal; Citral A; citral-b; Citral, mixture of cis and trans; CITRAL NATURAL; CITRAL SINTETICO; geranal; Geranial; geranialdehyde; Lemarome n; Neral; trans-3,7-Dimethyl-2,6-octadienal.

$$$$
589
  

 24 26  0  0  0  0  0  0  0  0999 V2000
   35.6760  -46.3483    0.0006 C   0  0  0  0  0  0  0  0  0  0  0  0
   35.6721  -47.6809    0.0004 C   0  0  0  0  0  0  0  0  0  0  0  0
   36.9400  -48.4130    0.0003 C   0  0  0  0  0  0  0  0  0  0  0  0
   36.9471  -45.6240   -0.0003 C   0  0  0  0  0  0  0  0  0  0  0  0
   38.0940  -46.2995   -0.0003 C   0  0  0  0  0  0  0  0  0  0  0  0
   38.0906  -47.7439    0.0001 C   0  0  0  0  0  0  0  0  0  0  0  0
   39.3613  -48.4526   -0.0003 C   0  0  0  0  0  0  0  0  0  0  0  0
   39.3692  -45.5989   -0.0000 C   0  0  0  0  0  0  0  0  0  0  0  0
   40.6284  -46.3598    0.0004 C   0  0  0  0  0  0  0  0  0  0  0  0
   40.6244  -47.6979    0.0005 C   0  0  0  0  0  0  0  0  0  0  0  0
   43.0482  -47.7659    0.0005 C   0  0  0  0  0  0  0  0  0  0  0  0
   43.0518  -46.3055    0.0000 C   0  0  0  0  0  0  0  0  0  0  0  0
   41.8939  -48.4281    0.0004 C   0  0  0  0  0  0  0  0  0  0  0  0
   41.9017  -45.6360   -0.0002 C   0  0  0  0  0  0  0  0  0  0  0  0
   39.3951  -44.3628    0.0006 O   0  0  0  0  0  0  0  0  0  0  0  0
   39.3790  -49.6881   -0.0006 O   0  0  0  0  0  0  0  0  0  0  0  0
   34.8121  -45.8446    0.0012 H   0  0  0  0  0  0  0  0  0  0  0  0
   34.8053  -48.1796    0.0004 H   0  0  0  0  0  0  0  0  0  0  0  0
   36.9415  -49.4130    0.0003 H   0  0  0  0  0  0  0  0  0  0  0  0
   36.9543  -44.6240   -0.0008 H   0  0  0  0  0  0  0  0  0  0  0  0
   43.9129  -48.2682    0.0010 H   0  0  0  0  0  0  0  0  0  0  0  0
   43.9193  -45.8082   -0.0002 H   0  0  0  0  0  0  0  0  0  0  0  0
   41.8933  -49.4281    0.0001 H   0  0  0  0  0  0  0  0  0  0  0  0
   41.9068  -44.6361   -0.0008 H   0  0  0  0  0  0  0  0  0  0  0  0
  1  2  2  0  0  0  0
  1  4  1  0  0  0  0
  2  3  1  0  0  0  0
  3  6  2  0  0  0  0
  5  4  2  0  0  0  0
  5  6  1  0  0  0  0
  5  8  1  0  0  0  0
  6  7  1  0  0  0  0
  7 10  1  0  0  0  0
  9  8  1  0  0  0  0
  9 10  2  0  0  0  0
 11 12  1  0  0  0  0
  9 14  1  0  0  0  0
 10 13  1  0  0  0  0
 13 11  2  0  0  0  0
 12 14  2  0  0  0  0
  8 15  2  0  0  0  0
  7 16  2  0  0  0  0
  1 17  1  0  0  0  0
  2 18  1  0  0  0  0
  3 19  1  0  0  0  0
  4 20  1  0  0  0  0
 11 21  1  0  0  0  0
 12 22  1  0  0  0  0
 13 23  1  0  0  0  0
 14 24  1  0  0  0  0
M  END
>  <Substance ID> (589)
589

>  <Mouse_Female_Canc> (589)
3

>  <SAL> (589)
3

>  <Rat_Male_Canc> (589)
3

>  <TD50_Rat> (589)
ND

>  <TD50_Mouse> (589)
ND

>  <Rat_Female_Canc> (589)
3

>  <Canc> (589)
3

>  <MolWeight> (589)
208.22

>  <Mouse_Male_Canc> (589)
3

>  <Mouse_Male_NTP> (589)
CE

>  <ChemName> (589)
9,10-Anthraquinone

>  <Rat_Male_NTP> (589)
SE

>  <Reference> (589)
NTP494

>  <Formula> (589)
C14H8O2

>  <SMILES> (589)
O=C1C2=C(C=CC=C2)C(=O)C3=C1C=CC=C3

>  <Rat_Female_NTP> (589)
CE

>  <CAS> (589)
84-65-1

>  <Mouse_Female_NTP> (589)
CE

>  <Synonyms> (589)
9,10-Anthracenedione; 9,10-dihydro-9,10-dioxoanthracene; 9,10-Dioxoanthracene; anthradione; Anthracenedione; Anthracenequinone; Anthrapel; Anthraquinone; corbit; hoelite; morkit.

$$$$
590
 

 18 18  0  0  0  0  0  0  0  0999 V2000
   34.2635  -58.3151    0.0009 C   0  0  0  0  0  0  0  0  0  0  0  0
   35.2321  -59.2297    0.0006 C   0  0  0  0  0  0  0  0  0  0  0  0
   36.9445  -57.5151   -0.0011 C   0  0  0  0  0  0  0  0  0  0  0  0
   35.8778  -56.5135   -0.0008 C   0  0  0  0  0  0  0  0  0  0  0  0
   36.6382  -58.8115    0.0002 C   0  0  0  0  0  0  0  0  0  0  0  0
   34.6019  -56.8930    0.0007 C   0  0  0  0  0  0  0  0  0  0  0  0
   38.3447  -57.0797   -0.0027 C   0  0  0  0  0  0  0  0  0  0  0  0
   39.3401  -57.9640    0.0014 C   0  0  0  0  0  0  0  0  0  0  0  0
   40.7262  -57.4855    0.0001 C   0  0  0  0  0  0  0  0  0  0  0  0
   41.6644  -58.2905    0.0003 O   0  0  0  0  0  0  0  0  0  0  0  0
   33.3053  -58.6013    0.0013 H   0  0  0  0  0  0  0  0  0  0  0  0
   35.0004  -60.2025    0.0007 H   0  0  0  0  0  0  0  0  0  0  0  0
   36.1081  -55.5404   -0.0016 H   0  0  0  0  0  0  0  0  0  0  0  0
   37.3652  -59.4981    0.0008 H   0  0  0  0  0  0  0  0  0  0  0  0
   33.8755  -56.2058    0.0015 H   0  0  0  0  0  0  0  0  0  0  0  0
   38.5556  -56.1022   -0.0070 H   0  0  0  0  0  0  0  0  0  0  0  0
   39.1444  -58.9447    0.0054 H   0  0  0  0  0  0  0  0  0  0  0  0
   40.9135  -56.5032   -0.0009 H   0  0  0  0  0  0  0  0  0  0  0  0
  1  2  2  0  0  0  0
  3  4  1  0  0  0  0
  1  6  1  0  0  0  0
  2  5  1  0  0  0  0
  5  3  2  0  0  0  0
  4  6  2  0  0  0  0
  3  7  1  0  0  0  0
  7  8  2  0  0  0  0
  8  9  1  0  0  0  0
  9 10  2  0  0  0  0
  1 11  1  0  0  0  0
  2 12  1  0  0  0  0
  4 13  1  0  0  0  0
  5 14  1  0  0  0  0
  6 15  1  0  0  0  0
  7 16  1  0  0  0  0
  8 17  1  0  0  0  0
  9 18  1  0  0  0  0
M  END
>  <Substance ID> (590)
590

>  <Mouse_Female_Canc> (590)
1

>  <SAL> (590)
1

>  <Rat_Male_Canc> (590)
1

>  <TD50_Rat> (590)
NP

>  <TD50_Mouse> (590)
NP

>  <Rat_Female_Canc> (590)
1

>  <Canc> (590)
1

>  <MolWeight> (590)
132.16

>  <Mouse_Male_Canc> (590)
1

>  <Mouse_Male_NTP> (590)
NE

>  <ChemName> (590)
trans-Cinnamaldehyde

>  <Rat_Male_NTP> (590)
NE

>  <Reference> (590)
NTP514

>  <Formula> (590)
C9H8O

>  <SMILES> (590)
O=CC=Cc(cccc1)c1

>  <Rat_Female_NTP> (590)
NE

>  <CAS> (590)
14371-10-9

>  <Mouse_Female_NTP> (590)
NE

>  <Synonyms> (590)
2-propenal,3-phenyl-,(E)-; (E)-3-phenylprop-2-enal; (E)-3-phenylpropenal; (E)-cinnamaldehyde; trans-3-phenyl-2-propenal; trans-Cinnamic Aldehyde; trans-cinnamylaldehyde. 

$$$$
591
 

 30 31  0  0  0  0  0  0  0  0999 V2000
   22.1774  -43.5221   -0.7524 N   0  0  0  0  0  0  0  0  0  0  0  0
   21.9937  -44.7569    0.0228 C   0  0  0  0  0  0  0  0  0  0  0  0
   23.2617  -45.5022    0.0900 N   0  0  0  0  0  0  0  0  0  0  0  0
   24.5181  -44.8046    0.2781 C   0  0  0  0  0  0  0  0  0  0  0  0
   24.5477  -43.2498    0.2731 C   0  0  0  0  0  0  0  0  0  0  0  0
   23.3799  -42.7294   -0.6019 C   0  0  0  0  0  0  0  0  0  0  0  0
   25.9507  -42.6079   -0.0627 C   0  0  0  0  0  0  0  0  0  0  0  0
   24.2073  -42.8653    1.7731 C   0  0  0  0  0  0  0  0  0  0  0  0
   27.0742  -43.3078    0.1189 C   0  0  0  0  0  0  0  0  0  0  0  0
   28.3836  -42.7327   -0.1969 C   0  0  0  0  0  0  0  0  0  0  0  0
   28.4758  -41.4912   -0.6647 C   0  0  0  0  0  0  0  0  0  0  0  0
   27.2665  -40.7023   -0.8680 C   0  0  0  0  0  0  0  0  0  0  0  0
   26.0747  -41.2258   -0.5915 C   0  0  0  0  0  0  0  0  0  0  0  0
   24.0446  -41.3456    2.0088 C   0  0  0  0  0  0  0  0  0  0  0  0
   23.4685  -41.6705   -1.2360 O   0  0  0  0  0  0  0  0  0  0  0  0
   25.5468  -45.4823    0.4132 O   0  0  0  0  0  0  0  0  0  0  0  0
   21.4656  -43.2265   -1.3896 H   0  0  0  0  0  0  0  0  0  0  0  0
   21.6963  -44.5252    0.9490 H   0  0  0  0  0  0  0  0  0  0  0  0
   21.2989  -45.3246   -0.4187 H   0  0  0  0  0  0  0  0  0  0  0  0
   23.2560  -46.4986    0.0051 H   0  0  0  0  0  0  0  0  0  0  0  0
   23.3520  -43.3166    2.0275 H   0  0  0  0  0  0  0  0  0  0  0  0
   24.9469  -43.1972    2.3587 H   0  0  0  0  0  0  0  0  0  0  0  0
   27.0202  -44.2401    0.4765 H   0  0  0  0  0  0  0  0  0  0  0  0
   29.2120  -43.2759   -0.0601 H   0  0  0  0  0  0  0  0  0  0  0  0
   29.3714  -41.1000   -0.8763 H   0  0  0  0  0  0  0  0  0  0  0  0
   27.3327  -39.7670   -1.2156 H   0  0  0  0  0  0  0  0  0  0  0  0
   25.2502  -40.6803   -0.7420 H   0  0  0  0  0  0  0  0  0  0  0  0
   23.8321  -41.1779    2.9714 H   0  0  0  0  0  0  0  0  0  0  0  0
   23.3009  -40.9970    1.4382 H   0  0  0  0  0  0  0  0  0  0  0  0
   24.8953  -40.8776    1.7694 H   0  0  0  0  0  0  0  0  0  0  0  0
  1  2  1  0  0  0  0
  1  6  1  0  0  0  0
  2  3  1  0  0  0  0
  3  4  1  0  0  0  0
  4  5  1  0  0  0  0
  5  6  1  0  0  0  0
  5  7  1  0  0  0  0
  5  8  1  0  0  0  0
  7  9  2  0  0  0  0
  9 10  1  0  0  0  0
 10 11  2  0  0  0  0
 11 12  1  0  0  0  0
 12 13  2  0  0  0  0
 13  7  1  0  0  0  0
  8 14  1  0  0  0  0
  6 15  2  0  0  0  0
  4 16  2  0  0  0  0
  1 17  1  0  0  0  0
  2 18  1  0  0  0  0
  2 19  1  0  0  0  0
  3 20  1  0  0  0  0
  8 21  1  0  0  0  0
  8 22  1  0  0  0  0
  9 23  1  0  0  0  0
 10 24  1  0  0  0  0
 11 25  1  0  0  0  0
 12 26  1  0  0  0  0
 13 27  1  0  0  0  0
 14 28  1  0  0  0  0
 14 29  1  0  0  0  0
 14 30  1  0  0  0  0
M  END
>  <Substance ID> (591)
591

>  <Mouse_Female_Canc> (591)
3

>  <SAL> (591)
3

>  <Rat_Male_Canc> (591)
2

>  <TD50_Rat> (591)
NP

>  <TD50_Mouse> (591)
ND

>  <Rat_Female_Canc> (591)
1

>  <Canc> (591)
3

>  <MolWeight> (591)
218.26

>  <Mouse_Male_Canc> (591)
3

>  <Mouse_Male_NTP> (591)
CE

>  <ChemName> (591)
Primaclone

>  <Rat_Male_NTP> (591)
EE

>  <Reference> (591)
NTP476

>  <Formula> (591)
C12H14N2O2 

>  <SMILES> (591)
CCC1(C(=O)NCNC1(=O))c2ccccc2

>  <Rat_Female_NTP> (591)
NE

>  <CAS> (591)
125-33-7

>  <Mouse_Female_NTP> (591)
CE

>  <Synonyms> (591)
2-deoxyphenobarbital; 5-ethyldihydro-5-phenyl-4,6(1H,5H)-pyrimidinedione; primacione; primacone; primakton; Primidone; primoline; prysoline; pyrimidone medi-pets; resimatil; roe 101; sertan; 5-ethylhexahydro-4,6-dioxo-5-phenylpyrimidine; 5-ethylhexahydro-5-phenylpyrimidine-4,6-dione; 5-Phenyl-5-ethyl-Hexahydropyrimidine-4,6-Dione; Cyral; desoxyphenobarbitone; hexadiona; hexamidine; hexamidine (the antispasmodic); lepimidin; lepsiral; liskantin; majsolin; midone; milepsin; misodine; misolyne; mizodin; mizolin; Myidone; mylepsin; mylepsinum; mysedon; Mysoline; prilepsin.

$$$$
592
 

 27 27  0  0  0  0  0  0  0  0999 V2000
   -0.0168    1.3873    0.0097 C   0  0  0  0  0  0  0  0  0  1  0  0
    0.0021   -0.0041    0.0020 C   0  0  0  0  0  0  0  0  0  2  0  0
    1.1755    2.0934    0.0021 C   0  0  0  0  0  0  0  0  0  3  0  0
   -1.2028    2.0527    0.0189 O   0  0  0  0  0  0  0  0  0  4  0  0
    1.2130   -0.6774   -0.0132 C   0  0  0  0  0  0  0  0  0  5  0  0
   -1.1654   -0.7015    0.0099 O   0  0  0  0  0  0  0  0  0  6  0  0
    2.3801    1.4154   -0.0131 C   0  0  0  0  0  0  0  0  0  7  0  0
   -0.8936    3.4479    0.0250 C   0  0  0  0  0  0  0  0  0  8  0  0
    2.3989    0.0331   -0.0207 C   0  0  0  0  0  0  0  0  0  9  0  0
   -0.8185   -2.0877   -0.0010 C   0  0  0  0  0  0  0  0  0 10  0  0
    3.6758    2.1850   -0.0218 C   0  0  0  0  0  0  0  0  0 11  0  0
    4.1216    2.4343    1.3960 C   0  0  0  0  0  0  0  0  0 12  0  0
    5.3151    2.0581    1.7832 C   0  0  0  0  0  0  0  0  0 13  0  0
    1.1636    3.1733    0.0076 H   0  0  0  0  0  0  0  0  0 14  0  0
    1.2304   -1.7572   -0.0188 H   0  0  0  0  0  0  0  0  0 15  0  0
   -0.3176    3.6963   -0.8664 H   0  0  0  0  0  0  0  0  0 16  0  0
   -1.8183    4.0249    0.0326 H   0  0  0  0  0  0  0  0  0 17  0  0
   -0.3091    3.6866    0.9136 H   0  0  0  0  0  0  0  0  0 18  0  0
    3.3421   -0.4929   -0.0321 H   0  0  0  0  0  0  0  0  0 19  0  0
   -0.2230   -2.3202    0.8819 H   0  0  0  0  0  0  0  0  0 20  0  0
   -1.7272   -2.6897    0.0048 H   0  0  0  0  0  0  0  0  0 21  0  0
   -0.2407   -2.3106   -0.8980 H   0  0  0  0  0  0  0  0  0 22  0  0
    4.4376    1.6079   -0.5460 H   0  0  0  0  0  0  0  0  0 23  0  0
    3.5288    3.1383   -0.5294 H   0  0  0  0  0  0  0  0  0 24  0  0
    3.4570    2.9232    2.0929 H   0  0  0  0  0  0  0  0  0 25  0  0
    5.6346    2.2368    2.7992 H   0  0  0  0  0  0  0  0  0 26  0  0
    5.9797    1.5691    1.0862 H   0  0  0  0  0  0  0  0  0 27  0  0
  1  2  2  0  0  0  0
  1  3  1  0  0  0  0
  1  4  1  0  0  0  0
  2  5  1  0  0  0  0
  2  6  1  0  0  0  0
  3  7  2  0  0  0  0
  3 14  1  0  0  0  0
  4  8  1  0  0  0  0
  5  9  2  0  0  0  0
  5 15  1  0  0  0  0
  6 10  1  0  0  0  0
  7 11  1  0  0  0  0
  7  9  1  0  0  0  0
  8 16  1  0  0  0  0
  8 17  1  0  0  0  0
  8 18  1  0  0  0  0
  9 19  1  0  0  0  0
 10 20  1  0  0  0  0
 10 21  1  0  0  0  0
 10 22  1  0  0  0  0
 11 12  1  0  0  0  0
 11 23  1  0  0  0  0
 11 24  1  0  0  0  0
 12 13  2  0  0  0  0
 12 25  1  0  0  0  0
 13 26  1  0  0  0  0
 13 27  1  0  0  0  0
M  END
>  <Substance ID> (592)
592

>  <Mouse_Female_Canc> (592)
3

>  <SAL> (592)
1

>  <Rat_Male_Canc> (592)
3

>  <TD50_Rat> (592)
ND

>  <TD50_Mouse> (592)
ND

>  <Rat_Female_Canc> (592)
3

>  <Canc> (592)
3

>  <MolWeight> (592)
178.23

>  <Mouse_Male_Canc> (592)
3

>  <Mouse_Male_NTP> (592)
CE

>  <ChemName> (592)
Methyleugenol

>  <Rat_Male_NTP> (592)
CE

>  <Reference> (592)
NTP491

>  <Formula> (592)
C11H14O2 

>  <SMILES> (592)
O(c(c(OC)cc(c1)CC=C)c1)C

>  <Rat_Female_NTP> (592)
CE

>  <CAS> (592)
93-15-2

>  <Mouse_Female_NTP> (592)
CE

>  <Synonyms> (592)
1,2-Dimethoxy-4-(2-propenyl)benzene; 1,2-dimethoxy-4-allylbenzene; 1-(3,4-dimethoxyphenyl)-2-propene; 1,3,4-eugenol methyl ether; 1-allyl-3,4-dimethoxybenzene; 2-Methoxy-4-propenylphenol methyl ether; o-methyl eugenol ether; 3,4-Dimethoxyallyl benzene; 4-Allyl-1,2-dimethoxybenzene; 4-allylveratrole; Allyl veratrole; Dimethoxy-4-(2-propenyl)benzene; eugenol methyl ether; eugenyl methyl ether; Methyl eugenyl ether; veratrole methyl ether.

$$$$
593
 

 13 13  0  0  0  0  0  0  0  0999 V2000
   37.0963  -89.9169    0.0001 O   0  0  0  0  0  0  0  0  0  0  0  0
   38.2938  -89.1676    0.0007 C   0  0  0  0  0  0  0  0  0  0  0  0
   38.0876  -87.8596    0.0008 C   0  0  0  0  0  0  0  0  0  0  0  0
   36.6720  -87.6779   -0.0004 C   0  0  0  0  0  0  0  0  0  0  0  0
   36.1130  -88.8857   -0.0008 C   0  0  0  0  0  0  0  0  0  0  0  0
   39.6601  -89.7904    0.0010 C   0  0  0  0  0  0  0  0  0  0  0  0
   40.6532  -88.7619   -0.0023 O   0  0  0  0  0  0  0  0  0  0  0  0
   38.7845  -87.1424    0.0016 H   0  0  0  0  0  0  0  0  0  0  0  0
   36.1883  -86.8026   -0.0009 H   0  0  0  0  0  0  0  0  0  0  0  0
   35.1265  -89.0491   -0.0015 H   0  0  0  0  0  0  0  0  0  0  0  0
   39.7685  -90.3554    0.8190 H   0  0  0  0  0  0  0  0  0  0  0  0
   39.7671  -90.3594   -0.8143 H   0  0  0  0  0  0  0  0  0  0  0  0
   41.5631  -89.1764   -0.0020 H   0  0  0  0  0  0  0  0  0  0  0  0
  4  5  2  0  0  0  0
  2  3  2  0  0  0  0
  1  2  1  0  0  0  0
  3  4  1  0  0  0  0
  5  1  1  0  0  0  0
  2  6  1  0  0  0  0
  6  7  1  0  0  0  0
  3  8  1  0  0  0  0
  4  9  1  0  0  0  0
  5 10  1  0  0  0  0
  6 11  1  0  0  0  0
  6 12  1  0  0  0  0
  7 13  1  0  0  0  0
M  END
>  <Substance ID> (593)
593

>  <Mouse_Female_Canc> (593)
1

>  <SAL> (593)
1

>  <Rat_Male_Canc> (593)
3

>  <TD50_Rat> (593)
ND

>  <TD50_Mouse> (593)
ND

>  <Rat_Female_Canc> (593)
2

>  <Canc> (593)
3

>  <MolWeight> (593)
98.10

>  <Mouse_Male_Canc> (593)
3

>  <Mouse_Male_NTP> (593)
SE

>  <ChemName> (593)
Furfuryl alcohol

>  <Rat_Male_NTP> (593)
SE

>  <Reference> (593)
NTP482

>  <Formula> (593)
C5H6O2 

>  <SMILES> (593)
c1c(CO)occ1

>  <Rat_Female_NTP> (593)
EE

>  <CAS> (593)
98-00-0

>  <Mouse_Female_NTP> (593)
NE

>  <Synonyms> (593)
2-furancarbinol; 2-furanmethanol; 2-Furylcarbinol; 2-Furylmethanol; 2-hydroxymethylfuran; alpha-furylcarbinol; FA; furfuralcohol.

$$$$
594


 13 13  0  0  0  0  0  0  0  0999 V2000
    3.5168   -5.4448   -0.2495 C   0  0  0  0  0  0  0  0  0  0  0  0
    4.2068   -6.6952    0.2999 C   0  0  0  0  0  0  0  0  0  0  0  0
    5.5685   -6.5426   -0.1762 O   0  0  0  0  0  0  0  0  0  0  0  0
    5.8724   -5.1142   -0.0460 C   0  0  0  0  0  0  0  0  0  0  0  0
    4.5455   -4.5159    0.1070 N   0  0  0  0  0  0  0  0  0  0  0  0
    4.3628   -3.1654    0.0080 N   0  0  0  0  0  0  0  0  0  0  0  0
    5.2860   -2.4387    0.0571 O   0  0  0  0  0  0  0  0  0  0  0  0
    3.3679   -5.4917   -1.2372 H   0  0  0  0  0  0  0  0  0  0  0  0
    2.6498   -5.2520    0.2100 H   0  0  0  0  0  0  0  0  0  0  0  0
    4.1744   -6.7152    1.2992 H   0  0  0  0  0  0  0  0  0  0  0  0
    3.7886   -7.5272   -0.0644 H   0  0  0  0  0  0  0  0  0  0  0  0
    6.4419   -4.9385    0.7570 H   0  0  0  0  0  0  0  0  0  0  0  0
    6.3321   -4.7674   -0.8636 H   0  0  0  0  0  0  0  0  0  0  0  0
  1  2  1  0  0  0  0
  3  4  1  0  0  0  0
  4  5  1  0  0  0  0
  5  1  1  0  0  0  0
  2  3  1  0  0  0  0
  5  6  1  0  0  0  0
  6  7  2  0  0  0  0
  1  8  1  0  0  0  0
  1  9  1  0  0  0  0
  2 10  1  0  0  0  0
  2 11  1  0  0  0  0
  4 12  1  0  0  0  0
  4 13  1  0  0  0  0
M  END
>  <Substance ID> (594)
594

>  <Mouse_Female_Canc> (594)
ND

>  <SAL> (594)
ND

>  <Rat_Male_Canc> (594)
ND

>  <TD50_Rat> (594)
ND

>  <TD50_Mouse> (594)
ND

>  <Rat_Female_Canc> (594)
3

>  <Canc> (594)
3

>  <MolWeight> (594)
102.09

>  <Mouse_Male_Canc> (594)
ND

>  <Mouse_Male_NTP> (594)
ND

>  <ChemName> (594)
N-nitroso-1,3-oxazolidine

>  <Rat_Male_NTP> (594)
ND

>  <Reference> (594)
Toxnet

>  <Formula> (594)
C3H6N2O2 

>  <SMILES> (594)
C1N(COC1)N=O

>  <Rat_Female_NTP> (594)
ND

>  <CAS> (594)
39884-52-1

>  <Mouse_Female_NTP> (594)
ND

>  <Synonyms> (594)
Nitrosooxazolidone.

$$$$
595
 

 30 32  0  0  0  0  0  0  0  0999 V2000
    4.1589  -14.9368    0.0000 C   0  0  0  0  0  0  0  0  0  0  0  0
    4.1650  -16.2687   -0.0003 C   0  0  0  0  0  0  0  0  0  0  0  0
    5.4376  -16.9925   -0.0007 C   0  0  0  0  0  0  0  0  0  0  0  0
    5.4255  -14.2019   -0.0002 C   0  0  0  0  0  0  0  0  0  0  0  0
    6.5790  -14.8685    0.0004 C   0  0  0  0  0  0  0  0  0  0  0  0
    6.5841  -16.3146    0.0001 C   0  0  0  0  0  0  0  0  0  0  0  0
    7.8585  -17.0135   -0.0003 C   0  0  0  0  0  0  0  0  0  0  0  0
    7.8513  -14.1609    0.0005 C   0  0  0  0  0  0  0  0  0  0  0  0
    9.1149  -14.9164   -0.0003 C   0  0  0  0  0  0  0  0  0  0  0  0
    9.1177  -16.2538    0.0001 C   0  0  0  0  0  0  0  0  0  0  0  0
   11.5426  -16.3134    0.0006 C   0  0  0  0  0  0  0  0  0  0  0  0
   11.5417  -14.8521    0.0007 C   0  0  0  0  0  0  0  0  0  0  0  0
   10.3901  -16.9792    0.0002 C   0  0  0  0  0  0  0  0  0  0  0  0
   10.3892  -14.1865    0.0005 C   0  0  0  0  0  0  0  0  0  0  0  0
    2.8696  -17.0264   -0.0008 C   0  0  0  0  0  0  0  0  0  0  0  0
    5.4190  -12.8110   -0.0003 O   0  0  0  0  0  0  0  0  0  0  0  0
   10.3972  -12.7957    0.0007 O   0  0  0  0  0  0  0  0  0  0  0  0
   12.7483  -17.0082    0.0008 O   0  0  0  0  0  0  0  0  0  0  0  0
    7.8724  -12.9256    0.0003 O   0  0  0  0  0  0  0  0  0  0  0  0
    7.8838  -18.2486   -0.0004 O   0  0  0  0  0  0  0  0  0  0  0  0
    3.2912  -14.4397    0.0004 H   0  0  0  0  0  0  0  0  0  0  0  0
    5.4460  -17.9925   -0.0015 H   0  0  0  0  0  0  0  0  0  0  0  0
   12.4076  -14.3519    0.0010 H   0  0  0  0  0  0  0  0  0  0  0  0
   10.3930  -17.9791    0.0000 H   0  0  0  0  0  0  0  0  0  0  0  0
    3.0574  -18.0086   -0.0010 H   0  0  0  0  0  0  0  0  0  0  0  0
    2.3437  -16.7880   -0.8172 H   0  0  0  0  0  0  0  0  0  0  0  0
    2.3433  -16.7884    0.8156 H   0  0  0  0  0  0  0  0  0  0  0  0
    6.3600  -12.4727   -0.0004 H   0  0  0  0  0  0  0  0  0  0  0  0
   11.3417  -12.4674    0.0012 H   0  0  0  0  0  0  0  0  0  0  0  0
   12.5669  -17.9915    0.0007 H   0  0  0  0  0  0  0  0  0  0  0  0
  1  2  2  0  0  0  0
  1  4  1  0  0  0  0
  2  3  1  0  0  0  0
  3  6  2  0  0  0  0
  5  4  2  0  0  0  0
  5  6  1  0  0  0  0
  5  8  1  0  0  0  0
  6  7  1  0  0  0  0
  7 10  1  0  0  0  0
  9  8  1  0  0  0  0
  9 10  2  0  0  0  0
 11 12  1  0  0  0  0
  9 14  1  0  0  0  0
 10 13  1  0  0  0  0
 13 11  2  0  0  0  0
 12 14  2  0  0  0  0
  2 15  1  0  0  0  0
  4 16  1  0  0  0  0
 14 17  1  0  0  0  0
 11 18  1  0  0  0  0
  8 19  2  0  0  0  0
  7 20  2  0  0  0  0
  1 21  1  0  0  0  0
  3 22  1  0  0  0  0
 12 23  1  0  0  0  0
 13 24  1  0  0  0  0
 15 25  1  0  0  0  0
 15 26  1  0  0  0  0
 15 27  1  0  0  0  0
 16 28  1  0  0  0  0
 17 29  1  0  0  0  0
 18 30  1  0  0  0  0
M  END
>  <Substance ID> (595)
595

>  <Mouse_Female_Canc> (595)
1

>  <SAL> (595)
3

>  <Rat_Male_Canc> (595)
1

>  <TD50_Rat> (595)
NP

>  <TD50_Mouse> (595)
NP

>  <Rat_Female_Canc> (595)
2

>  <Canc> (595)
2

>  <MolWeight> (595)
270.24

>  <Mouse_Male_Canc> (595)
2

>  <Mouse_Male_NTP> (595)
EE

>  <ChemName> (595)
Emodin

>  <Rat_Male_NTP> (595)
NE

>  <Reference> (595)
NTP493

>  <Formula> (595)
C15H10O5 

>  <SMILES> (595)
Cc3cc(O)c2C(=O)c1c(O)cc(O)cc1C(=O)c2c3

>  <Rat_Female_NTP> (595)
EE

>  <CAS> (595)
518-82-1

>  <Mouse_Female_NTP> (595)
NE

>  <Synonyms> (595)
1,3,8-Trihydroxy-6-methylanthraquinone; 6-methyl-1,3,8-trihydroxyanthraquinone; 9,10-anthracenedione, 1,3,8-trihydroxy-6-methyl-; C.I. 75440; C.I. natural yellow 14; emodol; frangula emodin; persian berry lake; rheum emodium; schuttgelb.

$$$$
596


 22 21  0  0  0  0  0  0  0  0999 V2000
   11.0394  -25.3847   -0.0006 C   0  0  0  0  0  0  0  0  0  0  0  0
    9.7931  -24.4810    0.0001 C   0  0  0  0  0  0  0  0  0  0  0  0
    8.5262  -25.3549   -0.0006 C   0  0  0  0  0  0  0  0  0  0  0  0
    7.2808  -24.4514    0.0001 C   0  0  0  0  0  0  0  0  0  0  0  0
    6.1062  -25.2614   -0.0006 O   0  0  0  0  0  0  0  0  0  0  0  0
    4.9538  -24.4194    0.0001 C   0  0  0  0  0  0  0  0  0  0  0  0
    3.6846  -25.2876   -0.0006 C   0  0  0  0  0  0  0  0  0  0  0  0
    2.5340  -24.4418    0.0000 O   0  0  0  0  0  0  0  0  0  0  0  0
   11.8629  -24.8176   -0.0001 H   0  0  0  0  0  0  0  0  0  0  0  0
   11.0329  -25.9616   -0.8174 H   0  0  0  0  0  0  0  0  0  0  0  0
   11.0329  -25.9628    0.8154 H   0  0  0  0  0  0  0  0  0  0  0  0
    9.7999  -23.9045    0.8172 H   0  0  0  0  0  0  0  0  0  0  0  0
    9.7999  -23.9033   -0.8161 H   0  0  0  0  0  0  0  0  0  0  0  0
    8.5193  -25.9314   -0.8177 H   0  0  0  0  0  0  0  0  0  0  0  0
    8.5193  -25.9327    0.8156 H   0  0  0  0  0  0  0  0  0  0  0  0
    7.2876  -23.8749    0.8171 H   0  0  0  0  0  0  0  0  0  0  0  0
    7.2877  -23.8736   -0.8161 H   0  0  0  0  0  0  0  0  0  0  0  0
    4.9627  -23.8429    0.8171 H   0  0  0  0  0  0  0  0  0  0  0  0
    4.9628  -23.8417   -0.8161 H   0  0  0  0  0  0  0  0  0  0  0  0
    3.6749  -25.8640   -0.8177 H   0  0  0  0  0  0  0  0  0  0  0  0
    3.6748  -25.8653    0.8156 H   0  0  0  0  0  0  0  0  0  0  0  0
    1.7068  -25.0037   -0.0004 H   0  0  0  0  0  0  0  0  0  0  0  0
  1  2  1  0  0  0  0
  2  3  1  0  0  0  0
  3  4  1  0  0  0  0
  4  5  1  0  0  0  0
  6  5  1  0  0  0  0
  6  7  1  0  0  0  0
  7  8  1  0  0  0  0
  1  9  1  0  0  0  0
  1 10  1  0  0  0  0
  1 11  1  0  0  0  0
  2 12  1  0  0  0  0
  2 13  1  0  0  0  0
  3 14  1  0  0  0  0
  3 15  1  0  0  0  0
  4 16  1  0  0  0  0
  4 17  1  0  0  0  0
  6 18  1  0  0  0  0
  6 19  1  0  0  0  0
  7 20  1  0  0  0  0
  7 21  1  0  0  0  0
  8 22  1  0  0  0  0
M  END
>  <Substance ID> (596)
596

>  <Mouse_Female_Canc> (596)
3

>  <SAL> (596)
1

>  <Rat_Male_Canc> (596)
1

>  <TD50_Rat> (596)
NP

>  <TD50_Mouse> (596)
ND

>  <Rat_Female_Canc> (596)
2

>  <Canc> (596)
3

>  <MolWeight> (596)
118.18

>  <Mouse_Male_Canc> (596)
3

>  <Mouse_Male_NTP> (596)
SE

>  <ChemName> (596)
Ethylene glycol mono butyl ether

>  <Rat_Male_NTP> (596)
NE

>  <Reference> (596)
NTP484

>  <Formula> (596)
C6H14O2 

>  <SMILES> (596)
O(CCCC)CCO

>  <Rat_Female_NTP> (596)
EE

>  <CAS> (596)
111-76-2

>  <Mouse_Female_NTP> (596)
SE

>  <Synonyms> (596)
2-butoxy-1-ethanol; 2-Butoxy ethanol; monobutyl ether of ethylene glycol; monobutyl glycol ether; n-butoxyethanol; n-Butyl Cellosolve; poly-solv eb; 2-BUTOXY ETHANOL (ETHYLENE GLYCOL MONOBUTYL ETHER); o-butyl ethylene glycol; 2-n-Butoxy-1-ethanol; 2-n-Butoxyethanol; 3-oxa-1-heptanol; Beta-butoxyethanol; BUCS; butoxyethanol; Butyl cellosolve; butyl glycol; Butyl oxitol; Dowanol EB; Ektasolve EB; Ektasolve EB solvent; Ethylene glycol butyl ether; Ethylene glycol monobutyl ether (EGBE)(2-Butoxyet); Ethylene Glycol Mono-n-butyl Ether; Ethylene glycol n-butyl ether; gafcol eb; glycol butyl ether; glycol ether eb; glycol ether eb acetate; Jeffersol EB.

$$$$
597
 

 12 11  0  0  0  0  0  0  0  0999 V2000
    3.3038  -32.8970    0.0004 C   0  0  0  0  0  0  0  0  0  0  0  0
    4.6002  -32.1395   -0.0001 C   0  0  0  0  0  0  0  0  0  0  0  0
    5.7566  -32.7992   -0.0002 C   0  0  0  0  0  0  0  0  0  0  0  0
    4.5924  -30.6378   -0.0004 C   0  0  0  0  0  0  0  0  0  0  0  0
    2.5400  -32.2515    0.0004 H   0  0  0  0  0  0  0  0  0  0  0  0
    3.2535  -33.4721    0.8170 H   0  0  0  0  0  0  0  0  0  0  0  0
    3.2532  -33.4725   -0.8158 H   0  0  0  0  0  0  0  0  0  0  0  0
    6.6200  -32.2948   -0.0005 H   0  0  0  0  0  0  0  0  0  0  0  0
    5.7618  -33.7992    0.0001 H   0  0  0  0  0  0  0  0  0  0  0  0
    5.5332  -30.2991   -0.0008 H   0  0  0  0  0  0  0  0  0  0  0  0
    4.1196  -30.3063    0.8160 H   0  0  0  0  0  0  0  0  0  0  0  0
    4.1192  -30.3067   -0.8168 H   0  0  0  0  0  0  0  0  0  0  0  0
  1  2  1  0  0  0  0
  2  3  2  0  0  0  0
  2  4  1  0  0  0  0
  1  5  1  0  0  0  0
  1  6  1  0  0  0  0
  1  7  1  0  0  0  0
  3  8  1  0  0  0  0
  3  9  1  0  0  0  0
  4 10  1  0  0  0  0
  4 11  1  0  0  0  0
  4 12  1  0  0  0  0
M  END
>  <Substance ID> (597)
597

>  <Mouse_Female_Canc> (597)
1

>  <SAL> (597)
1

>  <Rat_Male_Canc> (597)
3

>  <TD50_Rat> (597)
ND

>  <TD50_Mouse> (597)
NP

>  <Rat_Female_Canc> (597)
1

>  <Canc> (597)
3

>  <MolWeight> (597)
56.11

>  <Mouse_Male_Canc> (597)
1

>  <Mouse_Male_NTP> (597)
NE

>  <ChemName> (597)
Isobutene

>  <Rat_Male_NTP> (597)
SE

>  <Reference> (597)
NTP487

>  <Formula> (597)
C4H8 

>  <SMILES> (597)
C(=C)(C)C

>  <Rat_Female_NTP> (597)
NE

>  <CAS> (597)
115-11-7

>  <Mouse_Female_NTP> (597)
NE

>  <Synonyms> (597)
1,1-dimethylethylene; 2-methyl-1-propene; 2-methylpropene; 2-methylpropylene; isobutylene; isobutylene, various grades; isopropylidenemethylene; Methylpropene; unsym. dimethylethylene; gamma-butylene.

$$$$
598
 

 12 11  0  0  0  0  0  0  0  0999 V2000
    3.7653  -42.0577   -0.2729 C   0  0  0  0  0  0  0  0  0  0  0  0
    4.9931  -41.3597    0.3397 C   0  0  1  0  0  0  0  0  0  0  0  0
    6.2646  -42.1534   -0.0129 C   0  0  0  0  0  0  0  0  0  0  0  0
    5.0977  -40.0333   -0.1840 O   0  0  0  0  0  0  0  0  0  0  0  0
    2.3075  -41.1457    0.1319 Cl  0  0  0  0  0  0  0  0  0  0  0  0
    3.8670  -42.0996   -1.2668 H   0  0  0  0  0  0  0  0  0  0  0  0
    3.6912  -42.9849    0.0944 H   0  0  0  0  0  0  0  0  0  0  0  0
    4.8917  -41.3183    1.3337 H   0  0  0  0  0  0  0  0  0  0  0  0
    7.0622  -41.7001    0.3849 H   0  0  0  0  0  0  0  0  0  0  0  0
    6.3670  -42.1955   -1.0068 H   0  0  0  0  0  0  0  0  0  0  0  0
    6.1915  -43.0809    0.3538 H   0  0  0  0  0  0  0  0  0  0  0  0
    5.8951  -39.5794    0.2135 H   0  0  0  0  0  0  0  0  0  0  0  0
  1  2  1  0  0  0  0
  2  3  1  0  0  0  0
  2  4  1  0  0  0  0
  1  5  1  0  0  0  0
  1  6  1  0  0  0  0
  1  7  1  0  0  0  0
  2  8  1  0  0  0  0
  3  9  1  0  0  0  0
  3 10  1  0  0  0  0
  3 11  1  0  0  0  0
  4 12  1  0  0  0  0
M  END
>  <Substance ID> (598)
598

>  <Mouse_Female_Canc> (598)
1

>  <SAL> (598)
3

>  <Rat_Male_Canc> (598)
1

>  <TD50_Rat> (598)
NP

>  <TD50_Mouse> (598)
NP

>  <Rat_Female_Canc> (598)
1

>  <Canc> (598)
1

>  <MolWeight> (598)
94.54

>  <Mouse_Male_Canc> (598)
1

>  <Mouse_Male_NTP> (598)
NE

>  <ChemName> (598)
1-Chloro-2-propanol

>  <Rat_Male_NTP> (598)
NE

>  <Reference> (598)
NTP477

>  <Formula> (598)
C3H7ClO

>  <SMILES> (598)
OC(CCl)C

>  <Rat_Female_NTP> (598)
NE

>  <CAS> (598)
127-00-4

>  <Mouse_Female_NTP> (598)
NE

>  <Synonyms> (598)
1-chloro-2-hydroxypropane; 1-Chloro-2-propanol, remainder 2-chloro-1-propanol; 1-chloroisopropyl alcohol; alpha-propylene chlorohydrin; propylene chlorohydrin; sec-propylene chlorohydrin.

$$$$
599


 11 11  0  0  0  0  0  0  0  0999 V2000
    4.3655  -49.3842   -0.0000 C   0  0  0  0  0  0  0  0  0  0  0  0
    4.3936  -50.7160    0.0002 C   0  0  0  0  0  0  0  0  0  0  0  0
    6.7332  -50.7820   -0.0004 C   0  0  0  0  0  0  0  0  0  0  0  0
    6.7646  -49.3176   -0.0006 C   0  0  0  0  0  0  0  0  0  0  0  0
    5.6217  -51.4064   -0.0000 N   0  0  0  0  0  0  0  0  0  0  0  0
    5.6195  -48.6430   -0.0004 C   0  0  0  0  0  0  0  0  0  0  0  0
    3.4917  -48.8978    0.0001 H   0  0  0  0  0  0  0  0  0  0  0  0
    3.5358  -51.2301    0.0004 H   0  0  0  0  0  0  0  0  0  0  0  0
    7.5908  -51.2963   -0.0005 H   0  0  0  0  0  0  0  0  0  0  0  0
    7.6381  -48.8308   -0.0009 H   0  0  0  0  0  0  0  0  0  0  0  0
    5.6187  -47.6430   -0.0006 H   0  0  0  0  0  0  0  0  0  0  0  0
  1  2  2  0  0  0  0
  3  4  1  0  0  0  0
  1  6  1  0  0  0  0
  2  5  1  0  0  0  0
  5  3  2  0  0  0  0
  4  6  2  0  0  0  0
  1  7  1  0  0  0  0
  2  8  1  0  0  0  0
  3  9  1  0  0  0  0
  4 10  1  0  0  0  0
  6 11  1  0  0  0  0
M  END
>  <Substance ID> (599)
599

>  <Mouse_Female_Canc> (599)
3

>  <SAL> (599)
1

>  <Rat_Male_Canc> (599)
3

>  <TD50_Rat> (599)
ND

>  <TD50_Mouse> (599)
ND

>  <Rat_Female_Canc> (599)
2

>  <Canc> (599)
3

>  <MolWeight> (599)
79.10

>  <Mouse_Male_Canc> (599)
2

>  <Mouse_Male_NTP> (599)
EE

>  <ChemName> (599)
Pyridine

>  <Rat_Male_NTP> (599)
SE

>  <Reference> (599)
NTP470

>  <Formula> (599)
C5H5N

>  <SMILES> (599)
n(cccc1)c1

>  <Rat_Female_NTP> (599)
EE

>  <CAS> (599)
110-86-1

>  <Mouse_Female_NTP> (599)
CE

>  <Synonyms> (599)
Azabenzene; Azine; Pyr.

$$$$
600
 

 18 17  0  0  0  0  0  0  0  0999 V2000
    3.2490  -59.8006   -0.2113 N   0  0  0  0  0  0  0  0  0  0  0  0
    3.8635  -58.5428    0.3267 C   0  0  0  0  0  0  0  0  0  0  0  0
    5.1579  -58.1112   -0.4079 C   0  0  0  0  0  0  0  0  0  0  0  0
    5.6683  -56.9217    0.1905 O   0  0  0  0  0  0  0  0  0  0  0  0
    3.8692  -61.0565    0.3246 C   0  0  0  0  0  0  0  0  0  0  0  0
    5.1666  -61.4799   -0.4094 C   0  0  0  0  0  0  0  0  0  0  0  0
    5.6823  -62.6682    0.1870 O   0  0  0  0  0  0  0  0  0  0  0  0
    2.2776  -59.8030    0.0261 H   0  0  0  0  0  0  0  0  0  0  0  0
    3.1937  -57.8049    0.2437 H   0  0  0  0  0  0  0  0  0  0  0  0
    4.0828  -58.6875    1.2916 H   0  0  0  0  0  0  0  0  0  0  0  0
    5.8399  -58.8392   -0.3373 H   0  0  0  0  0  0  0  0  0  0  0  0
    4.9527  -57.9383   -1.3712 H   0  0  0  0  0  0  0  0  0  0  0  0
    6.5037  -56.6420   -0.2825 H   0  0  0  0  0  0  0  0  0  0  0  0
    4.0866  -60.9128    1.2901 H   0  0  0  0  0  0  0  0  0  0  0  0
    3.2033  -61.7975    0.2391 H   0  0  0  0  0  0  0  0  0  0  0  0
    4.9635  -61.6517   -1.3733 H   0  0  0  0  0  0  0  0  0  0  0  0
    5.8449  -60.7487   -0.3363 H   0  0  0  0  0  0  0  0  0  0  0  0
    6.5197  -62.9426   -0.2857 H   0  0  0  0  0  0  0  0  0  0  0  0
  1  2  1  0  0  0  0
  2  3  1  0  0  0  0
  3  4  1  0  0  0  0
  1  5  1  0  0  0  0
  5  6  1  0  0  0  0
  6  7  1  0  0  0  0
  1  8  1  0  0  0  0
  2  9  1  0  0  0  0
  2 10  1  0  0  0  0
  3 11  1  0  0  0  0
  3 12  1  0  0  0  0
  4 13  1  0  0  0  0
  5 14  1  0  0  0  0
  5 15  1  0  0  0  0
  6 16  1  0  0  0  0
  6 17  1  0  0  0  0
  7 18  1  0  0  0  0
M  END
>  <Substance ID> (600)
600

>  <Mouse_Female_Canc> (600)
3

>  <SAL> (600)
1

>  <Rat_Male_Canc> (600)
1

>  <TD50_Rat> (600)
NP

>  <TD50_Mouse> (600)
ND

>  <Rat_Female_Canc> (600)
1

>  <Canc> (600)
3

>  <MolWeight> (600)
105.14

>  <Mouse_Male_Canc> (600)
3

>  <Mouse_Male_NTP> (600)
CE

>  <ChemName> (600)
Diethanolamine

>  <Rat_Male_NTP> (600)
NE

>  <Reference> (600)
NTP478

>  <Formula> (600)
C4H11NO2 

>  <SMILES> (600)
OCCNCCO

>  <Rat_Female_NTP> (600)
NE

>  <CAS> (600)
111-42-2

>  <Mouse_Female_NTP> (600)
CE

>  <Synonyms> (600)
2,2'-Dihydroxydiethylamine; 2,2'-Iminobisethanol; Bis(2-hydroxyethyl)amine; Diethylolamine; Bis(hydroxyethyl)amine; Diolamine; DEA; iminodiethanol; N,N-Diethanolamine.

$$$$
601
 

 10  9  0  0  0  0  0  0  0  0999 V2000
    4.9059  -66.2062   -0.0006 C   0  0  0  0  0  0  0  0  0  0  0  0
    3.7756  -66.9096   -0.0003 C   0  0  0  0  0  0  0  0  0  0  0  0
    2.4853  -66.2203    0.0000 C   0  0  0  0  0  0  0  0  0  0  0  0
    1.3550  -66.9236    0.0003 C   0  0  0  0  0  0  0  0  0  0  0  0
    2.4285  -64.4930   -0.0006 Cl  0  0  0  0  0  0  0  0  0  0  0  0
    5.7880  -66.6772   -0.0008 H   0  0  0  0  0  0  0  0  0  0  0  0
    4.8728  -65.2068   -0.0007 H   0  0  0  0  0  0  0  0  0  0  0  0
    3.8087  -67.9091   -0.0002 H   0  0  0  0  0  0  0  0  0  0  0  0
    0.4730  -66.4524    0.0005 H   0  0  0  0  0  0  0  0  0  0  0  0
    1.3879  -67.9230    0.0003 H   0  0  0  0  0  0  0  0  0  0  0  0
  1  2  2  0  0  0  0
  2  3  1  0  0  0  0
  3  4  2  0  0  0  0
  3  5  1  0  0  0  0
  1  6  1  0  0  0  0
  1  7  1  0  0  0  0
  2  8  1  0  0  0  0
  4  9  1  0  0  0  0
  4 10  1  0  0  0  0
M  END
>  <Substance ID> (601)
601

>  <Mouse_Female_Canc> (601)
3

>  <SAL> (601)
1

>  <Rat_Male_Canc> (601)
3

>  <TD50_Rat> (601)
ND

>  <TD50_Mouse> (601)
ND

>  <Rat_Female_Canc> (601)
3

>  <Canc> (601)
3

>  <MolWeight> (601)
88.54

>  <Mouse_Male_Canc> (601)
3

>  <Mouse_Male_NTP> (601)
CE

>  <ChemName> (601)
Chloroprene

>  <Rat_Male_NTP> (601)
CE

>  <Reference> (601)
NTP467

>  <Formula> (601)
C4H5Cl

>  <SMILES> (601)
C(C=C)(=C)Cl

>  <Rat_Female_NTP> (601)
CE

>  <CAS> (601)
126-99-8

>  <Mouse_Female_NTP> (601)
CE

>  <Synonyms> (601)
2-Chloro-1,3-butadiene; 2-chlorobuta-1,3-diene; 2-chlorobutadiene; 2-Chloroprene; alpha-Chloroprene; beta-chlorobutadiene; beta-Chloroprene; chlorobutadiene; Chloroprene (2-chloro-1,3-butadiene); CHLOROPRENE (NEOPRENE); Neoprene.

$$$$
602
 

 17 18  0  0  0  0  0  0  0  0999 V2000
    7.8102  -74.3821   -0.0000 C   0  0  0  0  0  0  0  0  0  0  0  0
    8.5354  -75.6131    0.0040 N   0  0  0  0  0  0  0  0  0  0  0  0
    9.8066  -75.4625    0.0038 C   0  0  0  0  0  0  0  0  0  0  0  0
   10.2272  -73.7617   -0.0003 S   0  0  0  0  0  0  0  0  0  0  0  0
    8.5626  -73.2799   -0.0026 C   0  0  0  0  0  0  0  0  0  0  0  0
    5.5308  -75.4871    0.0044 O   0  0  0  0  0  0  0  0  0  0  0  0
    6.3518  -74.3347   -0.0022 C   0  0  0  0  0  0  0  0  0  0  0  0
    5.6675  -73.1981   -0.0111 C   0  0  0  0  0  0  0  0  0  0  0  0
    4.2949  -73.5542   -0.0105 C   0  0  0  0  0  0  0  0  0  0  0  0
    4.2519  -74.8794   -0.0012 C   0  0  0  0  0  0  0  0  0  0  0  0
    3.0631  -75.5876    0.0036 N   0  3  0  0  0  0  0  0  0  0  0  0
    1.9144  -74.9333    0.0015 O   0  5  0  0  0  0  0  0  0  0  0  0
    3.0767  -76.7611    0.0108 O   0  0  0  0  0  0  0  0  0  0  0  0
   10.4683  -76.2123    0.0057 H   0  0  0  0  0  0  0  0  0  0  0  0
    8.2244  -72.3388   -0.0054 H   0  0  0  0  0  0  0  0  0  0  0  0
    6.0454  -72.2723   -0.0170 H   0  0  0  0  0  0  0  0  0  0  0  0
    3.5140  -72.9296   -0.0161 H   0  0  0  0  0  0  0  0  0  0  0  0
  1  2  1  0  0  0  0
  2  3  2  0  0  0  0
  3  4  1  0  0  0  0
  4  5  1  0  0  0  0
  5  1  2  0  0  0  0
  9 10  2  0  0  0  0
  7  8  2  0  0  0  0
  6  7  1  0  0  0  0
  8  9  1  0  0  0  0
 10  6  1  0  0  0  0
  7  1  1  0  0  0  0
 10 11  1  0  0  0  0
 11 12  1  0  0  0  0
 11 13  2  0  0  0  0
  3 14  1  0  0  0  0
  5 15  1  0  0  0  0
  8 16  1  0  0  0  0
  9 17  1  0  0  0  0
M  END
>  <Substance ID> (602)
602

>  <Mouse_Female_Canc> (602)
ND

>  <SAL> (602)
3

>  <Rat_Male_Canc> (602)
ND

>  <TD50_Rat> (602)
7.68

>  <TD50_Mouse> (602)
ND

>  <Rat_Female_Canc> (602)
3

>  <Canc> (602)
3

>  <MolWeight> (602)
196.18

>  <Mouse_Male_Canc> (602)
ND

>  <Mouse_Male_NTP> (602)
ND

>  <ChemName> (602)
4-(5-Nitro-2-furyl)thiazole

>  <Rat_Male_NTP> (602)
ND

>  <Reference> (602)
CPDB

>  <Formula> (602)
C7H4N2O3S

>  <SMILES> (602)
[O-][N+](=O)c2oc(c1ncsc1)cc2

>  <Rat_Female_NTP> (602)
ND

>  <CAS> (602)
53757-28-1

>  <Mouse_Female_NTP> (602)
ND

>  <Synonyms> (602)
-

$$$$
603
 

  0  0  0  0  0  0  0  0  0  0999 V2000
M  END
>  <Substance ID> (603)
603

>  <Mouse_Female_Canc> (603)
ND

>  <SAL> (603)
ND

>  <Rat_Male_Canc> (603)
3

>  <TD50_Rat> (603)
2.99E-03

>  <TD50_Mouse> (603)
0.343

>  <Rat_Female_Canc> (603)
ND

>  <Canc> (603)
3

>  <MolWeight> (603)
Unspecified 

>  <Mouse_Male_Canc> (603)
3

>  <Mouse_Male_NTP> (603)
ND

>  <ChemName> (603)
Aflatoxin crude

>  <Rat_Male_NTP> (603)
ND

>  <Reference> (603)
CPDB

>  <Formula> (603)
Unspecified 

>  <SMILES> (603)
Unspecified 

>  <Rat_Female_NTP> (603)
ND

>  <CAS> (603)
----

>  <Mouse_Female_NTP> (603)
ND

>  <Synonyms> (603)
-

$$$$
604


 32 34  0  0  0  0  0  0  0  0999 V2000
   16.0003  -13.3368   -0.0659 C   0  0  2  0  0  0  0  0  0  0  0  0
   15.0844  -13.6408    1.1546 C   0  0  0  0  0  0  0  0  0  0  0  0
   15.1210  -13.6869   -1.2342 O   0  0  0  0  0  0  0  0  0  0  0  0
   14.3589  -14.8491    0.6234 C   0  0  1  0  0  0  0  0  0  0  0  0
   13.8734  -14.1806   -0.6568 C   0  0  2  0  0  0  0  0  0  0  0  0
   16.8647  -14.0267   -0.0778 H   0  0  0  0  0  0  0  0  0  0  0  0
   12.9469  -12.9775   -0.3065 C   0  0  0  0  0  0  0  0  0  0  0  0
   13.3288  -14.8623   -1.3253 H   0  0  0  0  0  0  0  0  0  0  0  0
   15.2570  -15.9208    0.3234 O   0  0  0  0  0  0  0  0  0  0  0  0
   13.5329  -15.1975    1.2653 H   0  0  0  0  0  0  0  0  0  0  0  0
   15.6181  -13.9032    1.9586 H   0  0  0  0  0  0  0  0  0  0  0  0
   14.5020  -12.8601    1.3809 H   0  0  0  0  0  0  0  0  0  0  0  0
   11.7784  -13.4218    0.3684 O   0  0  0  0  0  0  0  0  0  0  0  0
   16.3903  -11.9262   -0.0131 N   0  0  0  0  0  0  0  0  0  0  0  0
   16.1253   -9.7545    0.1613 N   0  0  0  0  0  0  0  0  0  0  0  0
   15.4739  -10.8549    0.1264 C   0  0  0  0  0  0  0  0  0  0  0  0
   17.4753  -10.0688    0.0480 C   0  0  0  0  0  0  0  0  0  0  0  0
   17.6508  -11.3540   -0.0560 C   0  0  0  0  0  0  0  0  0  0  0  0
   18.9238  -11.9359   -0.1775 N   0  0  0  0  0  0  0  0  0  0  0  0
   19.9573  -11.1613   -0.1879 C   0  0  0  0  0  0  0  0  0  0  0  0
   19.8259   -9.7339   -0.0781 N   0  0  0  0  0  0  0  0  0  0  0  0
   18.5609   -9.1673    0.0435 C   0  0  0  0  0  0  0  0  0  0  0  0
   18.3422   -7.6257    0.1704 S   0  0  0  0  0  0  0  0  0  0  0  0
   21.2331  -11.7135   -0.3075 N   0  0  0  0  0  0  0  0  0  0  0  0
   13.4444  -12.3414    0.2834 H   0  0  0  0  0  0  0  0  0  0  0  0
   12.6811  -12.5117   -1.1505 H   0  0  0  0  0  0  0  0  0  0  0  0
   14.7395  -16.7021   -0.0255 H   0  0  0  0  0  0  0  0  0  0  0  0
   11.1983  -12.6363    0.5838 H   0  0  0  0  0  0  0  0  0  0  0  0
   14.4798  -10.9443    0.1875 H   0  0  0  0  0  0  0  0  0  0  0  0
   20.6389   -9.1517   -0.0891 H   0  0  0  0  0  0  0  0  0  0  0  0
   22.0367  -11.1184   -0.3161 H   0  0  0  0  0  0  0  0  0  0  0  0
   21.3438  -12.7043   -0.3845 H   0  0  0  0  0  0  0  0  0  0  0  0
  1  2  1  1  0  0  0
  1  3  1  0  0  0  0
  2  4  1  0  0  0  0
  3  5  1  0  0  0  0
  5  4  1  1  0  0  0
  1  6  1  0  0  0  0
  5  7  1  0  0  0  0
  5  8  1  0  0  0  0
  4  9  1  0  0  0  0
  4 10  1  0  0  0  0
  2 11  1  0  0  0  0
  2 12  1  0  0  0  0
  7 13  1  0  0  0  0
  1 14  1  0  0  0  0
 14 18  1  0  0  0  0
 17 15  1  0  0  0  0
 15 16  2  0  0  0  0
 16 14  1  0  0  0  0
 17 18  2  0  0  0  0
 17 22  1  0  0  0  0
 18 19  1  0  0  0  0
 19 20  2  0  0  0  0
 20 21  1  0  0  0  0
 21 22  1  0  0  0  0
 22 23  2  0  0  0  0
 20 24  1  0  0  0  0
  7 25  1  0  0  0  0
  7 26  1  0  0  0  0
  9 27  1  0  0  0  0
 13 28  1  0  0  0  0
 16 29  1  0  0  0  0
 21 30  1  0  0  0  0
 24 31  1  0  0  0  0
 24 32  1  0  0  0  0
M  END
>  <Substance ID> (604)
604

>  <Mouse_Female_Canc> (604)
ND

>  <SAL> (604)
ND

>  <Rat_Male_Canc> (604)
1

>  <TD50_Rat> (604)
2.1

>  <TD50_Mouse> (604)
ND

>  <Rat_Female_Canc> (604)
3

>  <Canc> (604)
3

>  <MolWeight> (604)
283.30

>  <Mouse_Male_Canc> (604)
ND

>  <Mouse_Male_NTP> (604)
ND

>  <ChemName> (604)
beta-Thioguanine deoxyriboside

>  <Rat_Male_NTP> (604)
ND

>  <Reference> (604)
CPDB

>  <Formula> (604)
C10H13N5O3S

>  <SMILES> (604)
N1/C(=N\C2=C(C1=S)N=CN2[C@]3(C([C@@]([C@](O3)(CO)[H])(O)[H])([H])[H])[H])N

>  <Rat_Female_NTP> (604)
ND

>  <CAS> (604)
64039-27-6

>  <Mouse_Female_NTP> (604)
ND

>  <Synonyms> (604)
beta-2'-Deoxy-6-thioguanosine monohydrate; beta-dioxythioguanosine; beta-TGdR.

$$$$
605
 

 30 31  0  0  0  0  0  0  0  0999 V2000
   25.6660  -10.8797   -0.0006 C   0  0  0  0  0  0  0  0  0  0  0  0
   26.3365  -12.0295    0.0001 C   0  0  0  0  0  0  0  0  0  0  0  0
   28.4634  -10.8685   -0.0000 C   0  0  0  0  0  0  0  0  0  0  0  0
   27.7257   -9.6010   -0.0001 C   0  0  0  0  0  0  0  0  0  0  0  0
   27.7988  -12.0228    0.0006 C   0  0  0  0  0  0  0  0  0  0  0  0
   26.3925   -9.6081   -0.0007 C   0  0  0  0  0  0  0  0  0  0  0  0
   24.2695  -10.8864   -0.0002 N   0  0  0  0  0  0  0  0  0  0  0  0
   25.6863   -8.4029   -0.0008 N   0  0  0  0  0  0  0  0  0  0  0  0
   29.9308  -10.8772   -0.0001 C   0  0  0  0  0  0  0  0  0  0  0  0
   30.5813  -12.0394   -0.0001 C   0  0  0  0  0  0  0  0  0  0  0  0
   32.7276  -10.9221    0.0003 C   0  0  0  0  0  0  0  0  0  0  0  0
   32.0165   -9.6416   -0.0005 C   0  0  0  0  0  0  0  0  0  0  0  0
   32.0428  -12.0636    0.0004 C   0  0  0  0  0  0  0  0  0  0  0  0
   30.6835   -9.6187   -0.0005 C   0  0  0  0  0  0  0  0  0  0  0  0
   32.7369   -8.4454   -0.0005 N   0  0  0  0  0  0  0  0  0  0  0  0
   34.1245  -10.9467    0.0005 N   0  0  0  0  0  0  0  0  0  0  0  0
   25.8403  -12.8978    0.0003 H   0  0  0  0  0  0  0  0  0  0  0  0
   28.2219   -8.7328    0.0002 H   0  0  0  0  0  0  0  0  0  0  0  0
   28.3013  -12.8873    0.0013 H   0  0  0  0  0  0  0  0  0  0  0  0
   23.7654  -10.0228   -0.0007 H   0  0  0  0  0  0  0  0  0  0  0  0
   23.7737  -11.7548    0.0006 H   0  0  0  0  0  0  0  0  0  0  0  0
   26.1807   -7.5337   -0.0008 H   0  0  0  0  0  0  0  0  0  0  0  0
   24.6863   -8.4093   -0.0007 H   0  0  0  0  0  0  0  0  0  0  0  0
   30.0684  -12.8978   -0.0004 H   0  0  0  0  0  0  0  0  0  0  0  0
   32.5283  -12.9379    0.0008 H   0  0  0  0  0  0  0  0  0  0  0  0
   30.1977   -8.7447   -0.0009 H   0  0  0  0  0  0  0  0  0  0  0  0
   32.2531   -7.5702   -0.0010 H   0  0  0  0  0  0  0  0  0  0  0  0
   33.7367   -8.4638   -0.0000 H   0  0  0  0  0  0  0  0  0  0  0  0
   34.6091  -11.8214    0.0010 H   0  0  0  0  0  0  0  0  0  0  0  0
   34.6397  -10.0897    0.0001 H   0  0  0  0  0  0  0  0  0  0  0  0
  1  2  2  0  0  0  0
  3  4  1  0  0  0  0
  1  6  1  0  0  0  0
  2  5  1  0  0  0  0
  5  3  2  0  0  0  0
  4  6  2  0  0  0  0
  1  7  1  0  0  0  0
  6  8  1  0  0  0  0
  3  9  1  0  0  0  0
  9 10  2  0  0  0  0
 11 12  1  0  0  0  0
  9 14  1  0  0  0  0
 10 13  1  0  0  0  0
 13 11  2  0  0  0  0
 12 14  2  0  0  0  0
 12 15  1  0  0  0  0
 11 16  1  0  0  0  0
  2 17  1  0  0  0  0
  4 18  1  0  0  0  0
  5 19  1  0  0  0  0
  7 20  1  0  0  0  0
  7 21  1  0  0  0  0
  8 22  1  0  0  0  0
  8 23  1  0  0  0  0
 10 24  1  0  0  0  0
 13 25  1  0  0  0  0
 14 26  1  0  0  0  0
 15 27  1  0  0  0  0
 15 28  1  0  0  0  0
 16 29  1  0  0  0  0
 16 30  1  0  0  0  0
M  END
>  <Substance ID> (605)
605

>  <Mouse_Female_Canc> (605)
1

>  <SAL> (605)
ND

>  <Rat_Male_Canc> (605)
3

>  <TD50_Rat> (605)
395

>  <TD50_Mouse> (605)
288

>  <Rat_Female_Canc> (605)
ND

>  <Canc> (605)
3

>  <MolWeight> (605)
214.27

>  <Mouse_Male_Canc> (605)
3

>  <Mouse_Male_NTP> (605)
ND

>  <ChemName> (605)
3,3',4,4'-Tetraaminobiphenyl Tetrahydrochloride

>  <Rat_Male_NTP> (605)
ND

>  <Reference> (605)
CPDB

>  <Formula> (605)
C12H14N4 

>  <SMILES> (605)
Nc1ccc(cc1N)c2ccc(N)c(N)c2

>  <Rat_Female_NTP> (605)
ND

>  <CAS> (605)
7411-49-6

>  <Mouse_Female_NTP> (605)
ND

>  <Synonyms> (605)
[1,1'-Biphenyl]-3,3',4,4'-tetramine, tetrahydrochloride; 3,3',4,4'-Biphenyltetramine tetrahydrochloride; 3,3'-Diaminobenzidine tetrahydrochloride; 3,3'-Diaminobenzidine Tetrahydrochloride.

$$$$
606
 

 63 66  0  0  0  0  0  0  0  0999 V2000
   32.9921  -23.5449   -0.0929 C   0  0  0  0  0  0  0  0  0  0  0  0
   31.9490  -22.6961    0.1156 C   0  0  0  0  0  0  0  0  0  0  0  0
   30.2686  -24.5138   -0.0372 C   0  0  0  0  0  0  0  0  0  0  0  0
   31.2538  -25.3932   -0.2417 C   0  0  0  0  0  0  0  0  0  0  0  0
   30.5868  -23.2445    0.1029 C   0  0  0  0  0  0  0  0  0  0  0  0
   32.4666  -24.9261   -0.2950 C   0  0  0  0  0  0  0  0  0  0  0  0
   34.8936  -20.8868   -0.3399 C   0  0  0  0  0  0  0  0  0  0  0  0
   37.5704  -21.1683    0.0088 C   0  0  0  0  0  0  0  0  0  0  0  0
   36.9403  -19.8714   -0.0647 C   0  0  0  0  0  0  0  0  0  0  0  0
   35.6270  -19.7751   -0.2638 C   0  0  0  0  0  0  0  0  0  0  0  0
   36.8668  -22.2939   -0.0536 C   0  0  0  0  0  0  0  0  0  0  0  0
   35.4140  -22.2196   -0.1634 C   0  0  0  0  0  0  0  0  0  0  0  0
   34.6741  -23.3583   -0.1004 C   0  0  0  0  0  0  0  0  0  0  0  0
   37.5858  -23.4833    0.0166 O   0  0  0  0  0  0  0  0  0  0  0  0
   36.8537  -24.6451    0.0008 C   0  0  0  0  0  0  0  0  0  0  0  0
   35.5394  -24.6432   -0.0228 C   0  0  0  0  0  0  0  0  0  0  0  0
   35.4260  -27.0623   -0.0110 C   0  0  0  0  0  0  0  0  0  0  0  0
   36.8904  -27.1457   -0.0004 C   0  0  0  0  0  0  0  0  0  0  0  0
   34.9418  -25.8879   -0.0140 C   0  0  0  0  0  0  0  0  0  0  0  0
   37.5624  -25.9760    0.0220 C   0  0  0  0  0  0  0  0  0  0  0  0
   31.8011  -21.2975    0.4094 C   0  0  0  0  0  0  0  0  0  0  0  0
   32.7061  -20.3836    0.6432 O   0  0  0  0  0  0  0  0  0  0  0  0
   32.0605  -19.1197    0.8033 C   0  0  0  0  0  0  0  0  0  0  0  0
   31.6131  -18.5820   -0.5995 C   0  0  0  0  0  0  0  0  0  0  0  0
   30.6313  -20.9454    0.5016 O   0  0  0  0  0  0  0  0  0  0  0  0
   34.3217  -28.1578   -0.0371 C   0  0  0  0  0  0  0  0  0  0  0  0
   37.6251  -28.3572   -0.0039 N   0  0  0  0  0  0  0  0  0  0  0  0
   37.0039  -29.6514    0.0019 C   0  0  0  0  0  0  0  0  0  0  0  0
   37.9829  -30.7773    0.0046 C   0  0  0  0  0  0  0  0  0  0  0  0
   37.5987  -18.8008   -0.0047 N   0  0  0  0  0  0  0  0  0  0  0  0
   38.9866  -18.8705    0.1325 C   0  0  0  0  0  0  0  0  0  0  0  0
   39.5610  -17.4666    0.0056 C   0  0  0  0  0  0  0  0  0  0  0  0
   35.0809  -18.3726   -0.4124 C   0  0  0  0  0  0  0  0  0  0  0  0
   29.3152  -24.8122    0.0082 H   0  0  0  0  0  0  0  0  0  0  0  0
   31.0665  -26.3696   -0.3494 H   0  0  0  0  0  0  0  0  0  0  0  0
   29.8336  -22.5954    0.2102 H   0  0  0  0  0  0  0  0  0  0  0  0
   33.1654  -25.6090   -0.5076 H   0  0  0  0  0  0  0  0  0  0  0  0
   33.9171  -20.7890   -0.5323 H   0  0  0  0  0  0  0  0  0  0  0  0
   38.5640  -21.2210    0.1094 H   0  0  0  0  0  0  0  0  0  0  0  0
   33.9422  -25.8596   -0.0092 H   0  0  0  0  0  0  0  0  0  0  0  0
   38.5617  -25.9921    0.0537 H   0  0  0  0  0  0  0  0  0  0  0  0
   31.2583  -19.2270    1.3907 H   0  0  0  0  0  0  0  0  0  0  0  0
   32.6962  -18.4711    1.2218 H   0  0  0  0  0  0  0  0  0  0  0  0
   31.1609  -17.6970   -0.4891 H   0  0  0  0  0  0  0  0  0  0  0  0
   30.9776  -19.2306   -1.0184 H   0  0  0  0  0  0  0  0  0  0  0  0
   32.4151  -18.4749   -1.1872 H   0  0  0  0  0  0  0  0  0  0  0  0
   33.4208  -27.7238   -0.0376 H   0  0  0  0  0  0  0  0  0  0  0  0
   34.4101  -28.7403    0.7710 H   0  0  0  0  0  0  0  0  0  0  0  0
   34.4233  -28.7146   -0.8616 H   0  0  0  0  0  0  0  0  0  0  0  0
   38.6239  -28.3084   -0.0108 H   0  0  0  0  0  0  0  0  0  0  0  0
   36.4332  -29.7255    0.8197 H   0  0  0  0  0  0  0  0  0  0  0  0
   36.4306  -29.7317   -0.8135 H   0  0  0  0  0  0  0  0  0  0  0  0
   37.4907  -31.6477    0.0086 H   0  0  0  0  0  0  0  0  0  0  0  0
   38.5589  -30.7169    0.8198 H   0  0  0  0  0  0  0  0  0  0  0  0
   38.5563  -30.7230   -0.8130 H   0  0  0  0  0  0  0  0  0  0  0  0
   39.2174  -19.2486    1.0290 H   0  0  0  0  0  0  0  0  0  0  0  0
   39.3664  -19.4554   -0.5842 H   0  0  0  0  0  0  0  0  0  0  0  0
   40.5557  -17.5030    0.1021 H   0  0  0  0  0  0  0  0  0  0  0  0
   39.1782  -16.8833    0.7220 H   0  0  0  0  0  0  0  0  0  0  0  0
   39.3272  -17.0901   -0.8908 H   0  0  0  0  0  0  0  0  0  0  0  0
   35.8257  -17.7125   -0.3158 H   0  0  0  0  0  0  0  0  0  0  0  0
   34.3940  -18.2052    0.2949 H   0  0  0  0  0  0  0  0  0  0  0  0
   34.6614  -18.2715   -1.3145 H   0  0  0  0  0  0  0  0  0  0  0  0
  1  2  2  0  0  0  0
  3  4  1  0  0  0  0
  1  6  1  0  0  0  0
  2  5  1  0  0  0  0
  5  3  2  0  0  0  0
  4  6  2  0  0  0  0
  7 12  1  0  0  0  0
  7 10  2  0  0  0  0
 11  8  2  0  0  0  0
  8  9  1  0  0  0  0
  9 10  1  0  0  0  0
 11 12  1  0  0  0  0
 11 14  1  0  0  0  0
 12 13  2  0  0  0  0
 13 16  1  0  0  0  0
 15 14  1  0  0  0  0
 15 16  2  0  0  0  0
 17 18  1  0  0  0  0
 15 20  1  0  0  0  0
 16 19  1  0  0  0  0
 19 17  2  0  0  0  0
 18 20  2  0  0  0  0
 13  1  1  0  0  0  0
  2 21  1  0  0  0  0
 21 22  1  0  0  0  0
 22 23  1  0  0  0  0
 23 24  1  0  0  0  0
 21 25  2  0  0  0  0
 17 26  1  0  0  0  0
 18 27  1  0  0  0  0
 27 28  1  0  0  0  0
 28 29  1  0  0  0  0
  9 30  2  0  0  0  0
 30 31  1  0  0  0  0
 31 32  1  0  0  0  0
 10 33  1  0  0  0  0
  3 34  1  0  0  0  0
  4 35  1  0  0  0  0
  5 36  1  0  0  0  0
  6 37  1  0  0  0  0
  7 38  1  0  0  0  0
  8 39  1  0  0  0  0
 19 40  1  0  0  0  0
 20 41  1  0  0  0  0
 23 42  1  0  0  0  0
 23 43  1  0  0  0  0
 24 44  1  0  0  0  0
 24 45  1  0  0  0  0
 24 46  1  0  0  0  0
 26 47  1  0  0  0  0
 26 48  1  0  0  0  0
 26 49  1  0  0  0  0
 27 50  1  0  0  0  0
 28 51  1  0  0  0  0
 28 52  1  0  0  0  0
 29 53  1  0  0  0  0
 29 54  1  0  0  0  0
 29 55  1  0  0  0  0
 31 56  1  0  0  0  0
 31 57  1  0  0  0  0
 32 58  1  0  0  0  0
 32 59  1  0  0  0  0
 32 60  1  0  0  0  0
 33 61  1  0  0  0  0
 33 62  1  0  0  0  0
 33 63  1  0  0  0  0
M  END
>  <Substance ID> (606)
606

>  <Mouse_Female_Canc> (606)
1

>  <SAL> (606)
1

>  <Rat_Male_Canc> (606)
2

>  <TD50_Rat> (606)
NP

>  <TD50_Mouse> (606)
NP

>  <Rat_Female_Canc> (606)
2

>  <Canc> (606)
2

>  <MolWeight> (606)
442.56

>  <Mouse_Male_Canc> (606)
1

>  <Mouse_Male_NTP> (606)
NE

>  <ChemName> (606)
Rhodamine 6G

>  <Rat_Male_NTP> (606)
EE

>  <Reference> (606)
NTP364

>  <Formula> (606)
C28H30N2O3

>  <SMILES> (606)
CC1=CC2=C(C=C1NCC)OC3=C/C(=N/CC)\C(=C/C\3=C/2C4=CC=CC=C4C(=O)OCC)C

>  <Rat_Female_NTP> (606)
EE

>  <CAS> (606)
989-38-8

>  <Mouse_Female_NTP> (606)
NE

>  <Synonyms> (606)
basic red 1; Basic rhodamine yellow; calcozine red 6g; C.I. 45160; C.I. basic red 1; C.I. basic red 1, monohydrochloride; C.I. BASIC RED 1 (RHODAMINE); ethyl o-(6-(ethylamino)-3-(ethylimino)-2,7-dimethyl-3H-xanthen-9-yl)benzoate monohydrochloride; fanal pink gfk; rhodamine 4gh; rhodamine 6gb; rhodamine 6 gdn; rhodamine 6gex ethyl ester; rhodamine 6gx; rhodamine 6ZH; rhodamine f4g; rhodamine gdn; rhodamine lake red 6g; rhodamine y 20-7425; rhodamine ZH; silosuper pink b; Xanthylium, 9-[2-(ethoxycarbonyl)phenyl]-3,6-bis(ethylamino)-2,7-dimethyl-, chloride.

$$$$
607


 16 16  0  0  0  0  0  0  0  0999 V2000
   32.0444  -37.7556   -0.0004 C   0  0  0  0  0  0  0  0  0  0  0  0
   32.0445  -39.0868   -0.0002 C   0  0  0  0  0  0  0  0  0  0  0  0
   34.4642  -39.1527   -0.0006 C   0  0  0  0  0  0  0  0  0  0  0  0
   34.4656  -37.6895    0.0006 C   0  0  0  0  0  0  0  0  0  0  0  0
   33.3119  -39.8178   -0.0003 C   0  0  0  0  0  0  0  0  0  0  0  0
   33.3121  -37.0233    0.0006 C   0  0  0  0  0  0  0  0  0  0  0  0
   30.8833  -37.0841   -0.0008 F   0  0  0  0  0  0  0  0  0  0  0  0
   33.3122  -35.6268    0.0006 N   0  0  0  0  0  0  0  0  0  0  0  0
   35.6274  -37.0181    0.0009 F   0  0  0  0  0  0  0  0  0  0  0  0
   35.6735  -39.8501   -0.0003 N   0  0  0  0  0  0  0  0  0  0  0  0
   33.3120  -41.1599    0.0001 F   0  0  0  0  0  0  0  0  0  0  0  0
   30.8834  -39.7564   -0.0001 F   0  0  0  0  0  0  0  0  0  0  0  0
   34.1782  -35.1269    0.0014 H   0  0  0  0  0  0  0  0  0  0  0  0
   32.4462  -35.1267   -0.0000 H   0  0  0  0  0  0  0  0  0  0  0  0
   35.6741  -40.8500   -0.0011 H   0  0  0  0  0  0  0  0  0  0  0  0
   36.5393  -39.3496    0.0007 H   0  0  0  0  0  0  0  0  0  0  0  0
  1  2  2  0  0  0  0
  3  4  1  0  0  0  0
  1  6  1  0  0  0  0
  2  5  1  0  0  0  0
  5  3  2  0  0  0  0
  4  6  2  0  0  0  0
  1  7  1  0  0  0  0
  6  8  1  0  0  0  0
  4  9  1  0  0  0  0
  3 10  1  0  0  0  0
  5 11  1  0  0  0  0
  2 12  1  0  0  0  0
  8 13  1  0  0  0  0
  8 14  1  0  0  0  0
 10 15  1  0  0  0  0
 10 16  1  0  0  0  0
M  END
>  <Substance ID> (607)
607

>  <Mouse_Female_Canc> (607)
1

>  <SAL> (607)
ND

>  <Rat_Male_Canc> (607)
1

>  <TD50_Rat> (607)
NP

>  <TD50_Mouse> (607)
86.3

>  <Rat_Female_Canc> (607)
ND

>  <Canc> (607)
3

>  <MolWeight> (607)
180.10

>  <Mouse_Male_Canc> (607)
3

>  <Mouse_Male_NTP> (607)
ND

>  <ChemName> (607)
Tetrafluoro-m-phenylenediamine dihydrochloride

>  <Rat_Male_NTP> (607)
ND

>  <Reference> (607)
CPDB

>  <Formula> (607)
C6H4F4N2

>  <SMILES> (607)
C1(=C(C(=C(C(=C1N)F)N)F)F)F

>  <Rat_Female_NTP> (607)
ND

>  <CAS> (607)
63886-77-1

>  <Mouse_Female_NTP> (607)
ND

>  <Synonyms> (607)
-

$$$$
608


 22 24  0  0  0  0  0  0  0  0999 V2000
   37.0727  -47.6935    0.4311 O   0  0  0  0  0  0  0  0  0  0  0  0
   36.5127  -48.5812   -0.5347 C   0  0  1  0  0  0  0  0  0  0  0  0
   37.7244  -49.0098    0.2144 C   0  0  0  0  0  0  0  0  0  0  0  0
   33.8127  -51.2184    0.2057 C   0  0  0  0  0  0  0  0  0  0  0  0
   34.9407  -50.5334   -0.5851 C   0  0  0  0  0  0  0  0  0  0  0  0
   35.2486  -49.1986    0.0779 C   0  0  1  0  0  0  0  0  0  0  0  0
   34.0719  -48.2327   -0.2153 C   0  0  0  0  0  0  0  0  0  0  0  0
   32.7861  -50.1960    0.7542 C   0  0  1  0  0  0  0  0  0  0  0  0
   32.6666  -48.7611    0.2082 C   0  0  1  0  0  0  0  0  0  0  0  0
   32.2369  -49.8598   -0.5580 O   0  0  0  0  0  0  0  0  0  0  0  0
   36.2772  -48.5393   -1.5056 H   0  0  0  0  0  0  0  0  0  0  0  0
   37.6629  -49.7259    0.9098 H   0  0  0  0  0  0  0  0  0  0  0  0
   38.6105  -49.0665   -0.2456 H   0  0  0  0  0  0  0  0  0  0  0  0
   34.2138  -51.7171    0.9741 H   0  0  0  0  0  0  0  0  0  0  0  0
   33.3388  -51.8598   -0.3976 H   0  0  0  0  0  0  0  0  0  0  0  0
   35.7572  -51.1106   -0.5775 H   0  0  0  0  0  0  0  0  0  0  0  0
   34.6476  -50.3820   -1.5291 H   0  0  0  0  0  0  0  0  0  0  0  0
   35.3804  -49.3407    1.0589 H   0  0  0  0  0  0  0  0  0  0  0  0
   34.0534  -48.0557   -1.1993 H   0  0  0  0  0  0  0  0  0  0  0  0
   34.2426  -47.3778    0.2745 H   0  0  0  0  0  0  0  0  0  0  0  0
   32.6626  -50.4920    1.7014 H   0  0  0  0  0  0  0  0  0  0  0  0
   32.2455  -47.9013    0.4970 H   0  0  0  0  0  0  0  0  0  0  0  0
  2  1  1  0  0  0  0
  3  2  1  0  0  0  0
  1  3  1  0  0  0  0
  9  7  1  0  0  0  0
  8  4  1  0  0  0  0
  4  5  1  0  0  0  0
  5  6  1  0  0  0  0
  6  7  1  0  0  0  0
  9  8  1  0  0  0  0
 10  9  1  0  0  0  0
  8 10  1  0  0  0  0
  6  2  1  0  0  0  0
  2 11  1  0  0  0  0
  3 12  1  0  0  0  0
  3 13  1  0  0  0  0
  4 14  1  0  0  0  0
  4 15  1  0  0  0  0
  5 16  1  0  0  0  0
  5 17  1  0  0  0  0
  6 18  1  0  0  0  0
  7 19  1  0  0  0  0
  7 20  1  0  0  0  0
  8 21  1  0  0  0  0
  9 22  1  0  0  0  0
M  END
>  <Substance ID> (608)
608

>  <Mouse_Female_Canc> (608)
3

>  <SAL> (608)
3

>  <Rat_Male_Canc> (608)
3

>  <TD50_Rat> (608)
ND

>  <TD50_Mouse> (608)
ND

>  <Rat_Female_Canc> (608)
3

>  <Canc> (608)
3

>  <MolWeight> (608)
140.18

>  <Mouse_Male_Canc> (608)
3

>  <Mouse_Male_NTP> (608)
CE

>  <ChemName> (608)
1-Epoxyethyl-3,4-epoxycyclohexane

>  <Rat_Male_NTP> (608)
CE

>  <Reference> (608)
NTP362

>  <Formula> (608)
C8H12O2

>  <SMILES> (608)
O1C2C1CCC(C2)C1CO1

>  <Rat_Female_NTP> (608)
CE

>  <CAS> (608)
106-87-6

>  <Mouse_Female_NTP> (608)
CE

>  <Synonyms> (608)
1,2-Epoxy-4-(epoxyethyl)cyclohexane; 1-Ethyleneoxy-3,4-epoxycyclohexane; 1-vinyl-3-cyclohexene dioxide; 3-(1,2-epoxyethyl)-7-oxabicyclo[4.1.0]heptane; 3-oxiranyl-7-oxabicyclo[4.1.0]heptane; 4-(1,2-epoxyethyl)-7-oxabicyclo[4.1.0]heptane; 4-(epoxyethyl)-7-oxabicyclo[4.1.0]heptane; 4-Vinyl-1-cyclohexene Diepoxide; 4-vinyl-1-cyclohexene dioxide; 4-VINYL CYCLOHEXANE DIOXIDE; 4-Vinylcyclohexene diepoxide; 4-vinylcyclohexene dioxide; 4-Vinylcyclohexene Dioxide, 99% - Carc.; chissonox 206; EP-206; ERL 4206; erla-2270; erla-2271; ucet textile finish 11-74 (obs.); unox epoxide 206; Vinyl-4-Cyclohexene Dioxide; Vinylcyclohexene Diepoxide; Vinylcyclohexene Dioxide.

$$$$
609
 

 12 12  0  0  0  0  0  0  0  0999 V2000
   37.3496  -57.7469   -0.0003 C   0  0  0  0  0  0  0  0  0  0  0  0
   38.0278  -58.8952    0.0001 C   0  0  0  0  0  0  0  0  0  0  0  0
   39.4356  -58.9105   -0.0002 N   0  0  0  0  0  0  0  0  0  0  0  0
   40.1672  -57.7169   -0.0004 C   0  0  0  0  0  0  0  0  0  0  0  0
   39.4819  -56.4691    0.0003 N   0  0  0  0  0  0  0  0  0  0  0  0
   38.0619  -56.4718    0.0000 C   0  0  0  0  0  0  0  0  0  0  0  0
   37.4348  -55.4056    0.0000 O   0  0  0  0  0  0  0  0  0  0  0  0
   41.7311  -57.7538   -0.0004 S   0  0  0  0  0  0  0  0  0  0  0  0
   36.3497  -57.7589   -0.0007 H   0  0  0  0  0  0  0  0  0  0  0  0
   37.5274  -59.7610    0.0007 H   0  0  0  0  0  0  0  0  0  0  0  0
   39.9195  -59.7857   -0.0003 H   0  0  0  0  0  0  0  0  0  0  0  0
   39.9904  -55.6080    0.0010 H   0  0  0  0  0  0  0  0  0  0  0  0
  1  2  2  0  0  0  0
  1  6  1  0  0  0  0
  2  3  1  0  0  0  0
  3  4  1  0  0  0  0
  4  5  1  0  0  0  0
  5  6  1  0  0  0  0
  6  7  2  0  0  0  0
  4  8  2  0  0  0  0
  1  9  1  0  0  0  0
  2 10  1  0  0  0  0
  3 11  1  0  0  0  0
  5 12  1  0  0  0  0
M  END
>  <Substance ID> (609)
609

>  <Mouse_Female_Canc> (609)
3

>  <SAL> (609)
ND

>  <Rat_Male_Canc> (609)
3

>  <TD50_Rat> (609)
11.9

>  <TD50_Mouse> (609)
55

>  <Rat_Female_Canc> (609)
3

>  <Canc> (609)
3

>  <MolWeight> (609)
128.15

>  <Mouse_Male_Canc> (609)
3

>  <Mouse_Male_NTP> (609)
ND

>  <ChemName> (609)
Thiouracil

>  <Rat_Male_NTP> (609)
ND

>  <Reference> (609)
CPDB

>  <Formula> (609)
C4H4N2OS

>  <SMILES> (609)
O=C1NC(=S)NC=C1

>  <Rat_Female_NTP> (609)
ND

>  <CAS> (609)
141-90-2

>  <Mouse_Female_NTP> (609)
ND

>  <Synonyms> (609)
2-Mercapto-4-pyrimidone; 2-Thiouracil; 4(1H)-Pyrimidinone, 2,3-dihydro-2-thioxo-; 4-Hydroxy-2-mercaptopyrimidine.

$$$$
610
 

 24 26  0  0  0  0  0  0  0  0999 V2000
   32.0165  -64.7551   -0.0023 C   0  0  0  0  0  0  0  0  0  0  0  0
   31.8844  -66.1990    0.0027 C   0  0  0  0  0  0  0  0  0  0  0  0
   33.0109  -67.0491   -0.0007 O   0  0  0  0  0  0  0  0  0  0  0  0
   33.2205  -64.2065   -0.0044 C   0  0  0  0  0  0  0  0  0  0  0  0
   34.3928  -65.0569   -0.0040 C   0  0  0  0  0  0  0  0  0  0  0  0
   34.2756  -66.3944   -0.0036 C   0  0  0  0  0  0  0  0  0  0  0  0
   35.5001  -67.2413   -0.0036 C   0  0  0  0  0  0  0  0  0  0  0  0
   35.7232  -64.4394   -0.0032 C   0  0  0  0  0  0  0  0  0  0  0  0
   36.7793  -65.2392    0.0001 C   0  0  0  0  0  0  0  0  0  0  0  0
   36.6943  -66.6184    0.0000 C   0  0  0  0  0  0  0  0  0  0  0  0
   38.0009  -67.1809    0.0039 O   0  0  0  0  0  0  0  0  0  0  0  0
   38.8390  -66.0018    0.0062 C   0  0  0  0  0  0  0  0  0  0  0  0
   38.1356  -64.8641    0.0037 C   0  0  0  0  0  0  0  0  0  0  0  0
   35.3102  -68.6554   -0.0037 O   0  0  0  0  0  0  0  0  0  0  0  0
   30.7511  -66.6921    0.0097 O   0  0  0  0  0  0  0  0  0  0  0  0
   36.4920  -69.4654    0.0000 C   0  0  0  0  0  0  0  0  0  0  0  0
   31.2010  -64.1763   -0.0043 H   0  0  0  0  0  0  0  0  0  0  0  0
   33.3203  -63.2115   -0.0062 H   0  0  0  0  0  0  0  0  0  0  0  0
   35.8298  -63.4451   -0.0051 H   0  0  0  0  0  0  0  0  0  0  0  0
   39.8385  -66.0340    0.0093 H   0  0  0  0  0  0  0  0  0  0  0  0
   38.5007  -63.9331    0.0044 H   0  0  0  0  0  0  0  0  0  0  0  0
   36.2345  -70.4316   -0.0004 H   0  0  0  0  0  0  0  0  0  0  0  0
   37.0314  -69.2651    0.8179 H   0  0  0  0  0  0  0  0  0  0  0  0
   37.0362  -69.2656   -0.8149 H   0  0  0  0  0  0  0  0  0  0  0  0
  1  2  1  0  0  0  0
  1  4  2  0  0  0  0
  2  3  1  0  0  0  0
  3  6  1  0  0  0  0
  5  4  1  0  0  0  0
  5  6  2  0  0  0  0
  5  8  1  0  0  0  0
  6  7  1  0  0  0  0
  7 10  2  0  0  0  0
  9  8  2  0  0  0  0
  9 10  1  0  0  0  0
 10 11  1  0  0  0  0
 11 12  1  0  0  0  0
 12 13  2  0  0  0  0
  9 13  1  0  0  0  0
  7 14  1  0  0  0  0
  2 15  2  0  0  0  0
 14 16  1  0  0  0  0
  1 17  1  0  0  0  0
  4 18  1  0  0  0  0
  8 19  1  0  0  0  0
 12 20  1  0  0  0  0
 13 21  1  0  0  0  0
 16 22  1  0  0  0  0
 16 23  1  0  0  0  0
 16 24  1  0  0  0  0
M  END
>  <Substance ID> (610)
610

>  <Mouse_Female_Canc> (610)
1

>  <SAL> (610)
3

>  <Rat_Male_Canc> (610)
3

>  <TD50_Rat> (610)
32.4

>  <TD50_Mouse> (610)
NP

>  <Rat_Female_Canc> (610)
1

>  <Canc> (610)
3

>  <MolWeight> (610)
216.19

>  <Mouse_Male_Canc> (610)
1

>  <Mouse_Male_NTP> (610)
ND

>  <ChemName> (610)
8-Methoxypsoralen

>  <Rat_Male_NTP> (610)
CE

>  <Reference> (610)
CPDB & NTP359

>  <Formula> (610)
C12H8O4

>  <SMILES> (610)
COC1=C2C(=CC3=C1OC=C3)C=CC(=O)O2

>  <Rat_Female_NTP> (610)
NE

>  <CAS> (610)
298-81-7

>  <Mouse_Female_NTP> (610)
ND

>  <Synonyms> (610)
6-hydroxy-7-methoxy-5-benzofuranacrylic acid delta-lactone; 7-furocoumarin; 8-Methoxy; 8-methoxy-2',3',6,7-furocoumarin; 8-Methoxy-4',5':6,7-furocoumarin; 8-Methoxyfuranocoumarin; 8-MOP; 8-MP; 9-methoxy-7H-furo(3,2-g)benzopyran-7-one; 9-methoxyfuro[3,2-g]chromen-7-one; 9-Methoxypsoralen; Ammoidin; meladinin; Meloxine; Methoxa-Dome; methoxalen; Methoxsalen; Oxsoralen; Oxsoralen Lotion; Oxsoralen Ultra; oxypsoralen; proralone-mop; psoralen-mop; Psoralon-MOP; Uvadex; Xanthotoxin; xanthoxin; zanthotoxin.

$$$$
611
 

 13 13  0  0  0  0  0  0  0  0999 V2000
   43.0545  -79.4907   -0.3016 C   0  0  0  0  0  0  0  0  0  0  0  0
   42.5900  -80.8595    0.1962 C   0  0  0  0  0  0  0  0  0  0  0  0
   43.7453  -81.7311    0.0003 O   0  0  0  0  0  0  0  0  0  0  0  0
   44.8988  -80.8578   -0.1975 C   0  0  0  0  0  0  0  0  0  0  0  0
   44.4328  -79.4897    0.3005 C   0  0  0  0  0  0  0  0  0  0  0  0
   43.0797  -79.4418   -1.3001 H   0  0  0  0  0  0  0  0  0  0  0  0
   42.4873  -78.7481    0.0547 H   0  0  0  0  0  0  0  0  0  0  0  0
   42.3392  -80.8173    1.1634 H   0  0  0  0  0  0  0  0  0  0  0  0
   41.8087  -81.1832   -0.3374 H   0  0  0  0  0  0  0  0  0  0  0  0
   45.6814  -81.1800    0.3352 H   0  0  0  0  0  0  0  0  0  0  0  0
   45.1482  -80.8155   -1.1650 H   0  0  0  0  0  0  0  0  0  0  0  0
   44.4075  -79.4409    1.2990 H   0  0  0  0  0  0  0  0  0  0  0  0
   44.9989  -78.7463   -0.0558 H   0  0  0  0  0  0  0  0  0  0  0  0
  1  2  1  0  0  0  0
  2  3  1  0  0  0  0
  3  4  1  0  0  0  0
  4  5  1  0  0  0  0
  1  5  1  0  0  0  0
  1  6  1  0  0  0  0
  1  7  1  0  0  0  0
  2  8  1  0  0  0  0
  2  9  1  0  0  0  0
  4 10  1  0  0  0  0
  4 11  1  0  0  0  0
  5 12  1  0  0  0  0
  5 13  1  0  0  0  0
M  END
>  <Substance ID> (611)
611

>  <Mouse_Female_Canc> (611)
3

>  <SAL> (611)
1

>  <Rat_Male_Canc> (611)
3

>  <TD50_Rat> (611)
ND

>  <TD50_Mouse> (611)
ND

>  <Rat_Female_Canc> (611)
1

>  <Canc> (611)
3

>  <MolWeight> (611)
72.11

>  <Mouse_Male_Canc> (611)
1

>  <Mouse_Male_NTP> (611)
NE

>  <ChemName> (611)
Tetrahydrofuran

>  <Rat_Male_NTP> (611)
SE

>  <Reference> (611)
NTP475

>  <Formula> (611)
C4H8O

>  <SMILES> (611)
O(CCC1)C1

>  <Rat_Female_NTP> (611)
NE

>  <CAS> (611)
109-99-9

>  <Mouse_Female_NTP> (611)
CE

>  <Synonyms> (611)
1,4-Epoxybutane; Butylene oxide; Cyclotetramethylene; Cyclotetramethylene oxide; Furanidine; Hydrofuran; oxacyclopentane; oxolane; tetramethylene oxide; THF.

$$$$
612
 

 26 26  0  0  0  0  0  0  0  0999 V2000
   21.2570  -50.1102   -0.8902 H   0  0  0  0  0  0  0  0  0  0  0  0
   23.8297  -48.0966    1.1799 H   0  0  0  0  0  0  0  0  0  0  0  0
   23.7141  -51.0607   -0.5189 C   0  0  0  0  0  0  0  0  0  0  0  0
   19.7568  -49.5020    0.5345 C   0  0  0  0  0  0  0  0  0  0  0  0
   21.2095  -49.5102    0.0264 C   0  0  2  0  0  0  0  0  0  0  0  0
   23.8971  -48.6685    0.3624 C   0  0  0  0  0  0  0  0  0  0  0  0
   24.8453  -48.6866    0.0450 H   0  0  0  0  0  0  0  0  0  0  0  0
   23.0560  -48.6985   -1.6516 H   0  0  0  0  0  0  0  0  0  0  0  0
   21.6036  -48.1510   -0.2710 O   0  0  0  0  0  0  0  0  0  0  0  0
   23.4709  -50.1119    0.6872 C   0  0  2  0  0  0  0  0  0  0  0  0
   24.0712  -50.4832    1.5297 H   0  0  0  0  0  0  0  0  0  0  0  0
   22.0696  -50.0801    1.0675 O   0  0  0  0  0  0  0  0  0  0  0  0
   23.3109  -46.7299   -1.0575 O   0  0  0  0  0  0  0  0  0  0  0  0
   22.9616  -48.0976   -0.7398 C   0  0  1  0  0  0  0  0  0  0  0  0
   23.1018  -45.8242    0.0105 C   0  0  0  0  0  0  0  0  0  0  0  0
   23.4440  -44.3763   -0.1827 C   0  0  0  0  0  0  0  0  0  0  0  0
   22.6232  -46.1906    1.0913 O   0  0  0  0  0  0  0  0  0  0  0  0
   24.6860  -51.0591   -0.7542 H   0  0  0  0  0  0  0  0  0  0  0  0
   23.1810  -50.7458   -1.3042 H   0  0  0  0  0  0  0  0  0  0  0  0
   23.4321  -51.9888   -0.2757 H   0  0  0  0  0  0  0  0  0  0  0  0
   19.1597  -49.1149   -0.1680 H   0  0  0  0  0  0  0  0  0  0  0  0
   19.6967  -48.9479    1.3648 H   0  0  0  0  0  0  0  0  0  0  0  0
   19.4689  -50.4380    0.7373 H   0  0  0  0  0  0  0  0  0  0  0  0
   23.2411  -43.8706    0.6557 H   0  0  0  0  0  0  0  0  0  0  0  0
   22.9025  -44.0029   -0.9360 H   0  0  0  0  0  0  0  0  0  0  0  0
   24.4169  -44.2890   -0.3969 H   0  0  0  0  0  0  0  0  0  0  0  0
  5 12  1  0  0  0  0
 12 10  1  0  0  0  0
 10  6  1  0  0  0  0
  6 14  1  0  0  0  0
 14  9  1  0  0  0  0
  9  5  1  0  0  0  0
  1  5  1  0  0  0  0
  6  2  1  0  0  0  0
  3 10  1  0  0  0  0
  4  5  1  0  0  0  0
  6  7  1  0  0  0  0
  8 14  1  0  0  0  0
 10 11  1  0  0  0  0
 13 14  1  0  0  0  0
 13 15  1  0  0  0  0
 15 16  1  0  0  0  0
 15 17  2  0  0  0  0
  3 18  1  0  0  0  0
  3 19  1  0  0  0  0
  3 20  1  0  0  0  0
  4 21  1  0  0  0  0
  4 22  1  0  0  0  0
  4 23  1  0  0  0  0
 16 24  1  0  0  0  0
 16 25  1  0  0  0  0
 16 26  1  0  0  0  0
M  END
>  <Substance ID> (612)
612

>  <Mouse_Female_Canc> (612)
1

>  <SAL> (612)
3

>  <Rat_Male_Canc> (612)
1

>  <TD50_Rat> (612)
NP

>  <TD50_Mouse> (612)
NP

>  <Rat_Female_Canc> (612)
1

>  <Canc> (612)
2

>  <MolWeight> (612)
174.20

>  <Mouse_Male_Canc> (612)
2

>  <Mouse_Male_NTP> (612)
EE

>  <ChemName> (612)
Dimethoxane

>  <Rat_Male_NTP> (612)
NE

>  <Reference> (612)
NTP354

>  <Formula> (612)
C8H14O4

>  <SMILES> (612)
CC1CC(OC(O1)C)OC(=O)C

>  <Rat_Female_NTP> (612)
NE

>  <CAS> (612)
828-00-2

>  <Mouse_Female_NTP> (612)
NE

>  <Synonyms> (612)
2,6-Dimethyl-1,3-dioxan-4-ol acetate; 2,6-Dimethyl-m-dioxan-4-ol acetate; 2,6-Dimethyl-m-dioxan-4-yl acetate; 6-Acetoxy-2,4-dimethyl-1,3-dioxane; 6-Acetoxy-2,4-dimethyl-m-dioxane; acetic acid 2,6-dimethyl-m-dioxan-4-yl ester; acetic acid, ester with 2,6-dimethyl-m-dioxan-4-ol; Acetomethoxane; DDOA; g1v gard dxn.

$$$$
613
 

 23 23  0  0  0  0  0  0  0  0999 V2000
   32.4041  -88.9922   -0.0007 C   0  0  0  0  0  0  0  0  0  0  0  0
   32.3978  -90.3234   -0.0002 C   0  0  0  0  0  0  0  0  0  0  0  0
   34.8177  -90.4015   -0.0003 C   0  0  0  0  0  0  0  0  0  0  0  0
   34.8251  -88.9375   -0.0001 C   0  0  0  0  0  0  0  0  0  0  0  0
   33.6614  -91.0616    0.0003 C   0  0  0  0  0  0  0  0  0  0  0  0
   33.6755  -88.2664    0.0001 C   0  0  0  0  0  0  0  0  0  0  0  0
   31.1081  -88.2353    0.0002 C   0  0  0  0  0  0  0  0  0  0  0  0
   33.6536  -92.5624    0.0000 C   0  0  0  0  0  0  0  0  0  0  0  0
   36.1290  -88.1941    0.0009 C   0  0  0  0  0  0  0  0  0  0  0  0
   33.6822  -86.8706    0.0008 N   0  0  0  0  0  0  0  0  0  0  0  0
   31.5294  -90.8192   -0.0001 H   0  0  0  0  0  0  0  0  0  0  0  0
   35.6812  -90.9058   -0.0010 H   0  0  0  0  0  0  0  0  0  0  0  0
   31.2952  -87.2531   -0.0003 H   0  0  0  0  0  0  0  0  0  0  0  0
   30.5828  -88.4737    0.8171 H   0  0  0  0  0  0  0  0  0  0  0  0
   30.5814  -88.4743   -0.8157 H   0  0  0  0  0  0  0  0  0  0  0  0
   34.5945  -92.9010    0.0004 H   0  0  0  0  0  0  0  0  0  0  0  0
   33.1810  -92.8936   -0.8167 H   0  0  0  0  0  0  0  0  0  0  0  0
   33.1802  -92.8939    0.8161 H   0  0  0  0  0  0  0  0  0  0  0  0
   35.9522  -87.2100    0.0010 H   0  0  0  0  0  0  0  0  0  0  0  0
   36.6529  -88.4381   -0.8152 H   0  0  0  0  0  0  0  0  0  0  0  0
   36.6519  -88.4384    0.8176 H   0  0  0  0  0  0  0  0  0  0  0  0
   34.5506  -86.3747    0.0013 H   0  0  0  0  0  0  0  0  0  0  0  0
   32.8186  -86.3664    0.0008 H   0  0  0  0  0  0  0  0  0  0  0  0
  1  2  2  0  0  0  0
  3  4  1  0  0  0  0
  1  6  1  0  0  0  0
  2  5  1  0  0  0  0
  5  3  2  0  0  0  0
  4  6  2  0  0  0  0
  1  7  1  0  0  0  0
  5  8  1  0  0  0  0
  4  9  1  0  0  0  0
  6 10  1  0  0  0  0
  2 11  1  0  0  0  0
  3 12  1  0  0  0  0
  7 13  1  0  0  0  0
  7 14  1  0  0  0  0
  7 15  1  0  0  0  0
  8 16  1  0  0  0  0
  8 17  1  0  0  0  0
  8 18  1  0  0  0  0
  9 19  1  0  0  0  0
  9 20  1  0  0  0  0
  9 21  1  0  0  0  0
 10 22  1  0  0  0  0
 10 23  1  0  0  0  0
M  END
>  <Substance ID> (613)
613

>  <Mouse_Female_Canc> (613)
3

>  <SAL> (613)
ND

>  <Rat_Male_Canc> (613)
3

>  <TD50_Rat> (613)
5.17

>  <TD50_Mouse> (613)
24.8

>  <Rat_Female_Canc> (613)
ND

>  <Canc> (613)
3

>  <MolWeight> (613)
135.21

>  <Mouse_Male_Canc> (613)
3

>  <Mouse_Male_NTP> (613)
ND

>  <ChemName> (613)
2,4,6-Trimethylaniline Hydrochloride

>  <Rat_Male_NTP> (613)
ND

>  <Reference> (613)
CPDB

>  <Formula> (613)
C9H13N

>  <SMILES> (613)
C1(=CC(=CC(=C1N)C)C)C

>  <Rat_Female_NTP> (613)
ND

>  <CAS> (613)
6334-11-8

>  <Mouse_Female_NTP> (613)
ND

>  <Synonyms> (613)
-

$$$$
614
 

  5  4  0  0  0  0  0  0  0  0999 V2000
   -0.0193    1.5733    0.0107 P   0  0  3  0  0  0  0  0  0  1  0  0
    0.0021   -0.0041    0.0020 O   0  0  0  0  0  0  0  0  0  2  0  0
    1.4606    2.1193   -0.0005 O   0  5  0  0  0  0  0  0  0  3  0  0
   -0.7823    2.0958   -1.2673 O   0  5  0  0  0  0  0  0  0  4  0  0
   -0.7577    2.0820    1.3086 O   0  5  0  0  0  0  0  0  0  5  0  0
  1  2  2  0  0  0  0
  1  3  1  0  0  0  0
  1  4  1  0  0  0  0
  1  5  1  0  0  0  0
M  END
>  <Substance ID> (614)
614

>  <Mouse_Female_Canc> (614)
1

>  <SAL> (614)
3

>  <Rat_Male_Canc> (614)
ND

>  <TD50_Rat> (614)
ND

>  <TD50_Mouse> (614)
NP

>  <Rat_Female_Canc> (614)
ND

>  <Canc> (614)
1

>  <MolWeight> (614)
1594.90

>  <Mouse_Male_Canc> (614)
1

>  <Mouse_Male_NTP> (614)
NE

>  <ChemName> (614)
Chlorinated trisodium phosphate

>  <Rat_Male_NTP> (614)
ND

>  <Reference> (614)
NTP294

>  <Formula> (614)
4(Na3PO4.12H2O).NaOCl

>  <SMILES> (614)
[Na+].[O-]P([O-].[Na+].)([O-])=O.[Na+]

>  <Rat_Female_NTP> (614)
ND

>  <CAS> (614)
56802-99-4

>  <Mouse_Female_NTP> (614)
NE

>  <Synonyms> (614)
Phosphoric acid, trisodium salt (chlorinated); sodium hypochlorite phosphate; Sodium hypochlorite phosphate (Na4(ClO)(PO4)).

$$$$
615
 

  0  0  0  0  0  0  0  0  0  0999 V2000
M  END
>  <Substance ID> (615)
615

>  <Mouse_Female_Canc> (615)
1

>  <SAL> (615)
1

>  <Rat_Male_Canc> (615)
1

>  <TD50_Rat> (615)
NP

>  <TD50_Mouse> (615)
NP

>  <Rat_Female_Canc> (615)
1

>  <Canc> (615)
1

>  <MolWeight> (615)
Unspecified 

>  <Mouse_Male_Canc> (615)
1

>  <Mouse_Male_NTP> (615)
ND

>  <ChemName> (615)
Locust bean gum

>  <Rat_Male_NTP> (615)
ND

>  <Reference> (615)
NTP221

>  <Formula> (615)
Unspecified 

>  <SMILES> (615)
Unspecified 

>  <Rat_Female_NTP> (615)
ND

>  <CAS> (615)
9000-40-2

>  <Mouse_Female_NTP> (615)
ND

>  <Synonyms> (615)
algoroba; arobon; Carob bean extract; carob bean gum; carob flour; Carob gum; Carob seed gum; Ceratonia siliqua l. extract; Ceratonia siliqua l. gum; johannisbrotmehl; Locust bean extract; Locust bean oil; st. johns bread; St. johns bread extract; St. john's bread gum.

$$$$
616
 

 14 13  0  0  0  0  0  0  0  0999 V2000
    6.8000  -14.8246   -0.0004 C   0  0  0  0  0  0  0  0  0  0  0  0
    5.5317  -14.0807    0.0005 N   0  0  0  0  0  0  0  0  0  0  0  0
    4.2866  -14.7866   -0.0002 C   0  0  0  0  0  0  0  0  0  0  0  0
    3.0261  -14.0448   -0.0005 C   0  0  0  0  0  0  0  0  0  0  0  0
    1.8673  -14.7024    0.0007 C   0  0  0  0  0  0  0  0  0  0  0  0
    7.8940  -13.9039    0.0004 O   0  0  0  0  0  0  0  0  0  0  0  0
    4.2771  -16.0226   -0.0001 O   0  0  0  0  0  0  0  0  0  0  0  0
    6.8488  -15.4006    0.8156 H   0  0  0  0  0  0  0  0  0  0  0  0
    6.8486  -15.3988   -0.8177 H   0  0  0  0  0  0  0  0  0  0  0  0
    5.5391  -13.0807    0.0017 H   0  0  0  0  0  0  0  0  0  0  0  0
    3.0340  -13.0449   -0.0015 H   0  0  0  0  0  0  0  0  0  0  0  0
    1.0050  -14.1959    0.0005 H   0  0  0  0  0  0  0  0  0  0  0  0
    1.8598  -15.7023    0.0017 H   0  0  0  0  0  0  0  0  0  0  0  0
    8.7563  -14.4102   -0.0002 H   0  0  0  0  0  0  0  0  0  0  0  0
  1  2  1  0  0  0  0
  2  3  1  0  0  0  0
  3  4  1  0  0  0  0
  4  5  2  0  0  0  0
  1  6  1  0  0  0  0
  3  7  2  0  0  0  0
  1  8  1  0  0  0  0
  1  9  1  0  0  0  0
  2 10  1  0  0  0  0
  4 11  1  0  0  0  0
  5 12  1  0  0  0  0
  5 13  1  0  0  0  0
  6 14  1  0  0  0  0
M  END
>  <Substance ID> (616)
616

>  <Mouse_Female_Canc> (616)
3

>  <SAL> (616)
1

>  <Rat_Male_Canc> (616)
1

>  <TD50_Rat> (616)
NP

>  <TD50_Mouse> (616)
26.6

>  <Rat_Female_Canc> (616)
1

>  <Canc> (616)
3

>  <MolWeight> (616)
101.10

>  <Mouse_Male_Canc> (616)
3

>  <Mouse_Male_NTP> (616)
CE

>  <ChemName> (616)
N-methylolacrylamide

>  <Rat_Male_NTP> (616)
NE

>  <Reference> (616)
NTP352

>  <Formula> (616)
C4H7NO2

>  <SMILES> (616)
O=C(NCO)C=C

>  <Rat_Female_NTP> (616)
NE

>  <CAS> (616)
924-42-5

>  <Mouse_Female_NTP> (616)
CE

>  <Synonyms> (616)
Monomethylolacrylamide; N-(Hydroxymethyl)-2-propenamide; N-(Hydroxymethyl)acrylamide; N-methanolacrylamide; N-methyloacrylamide; uramine t 80.

$$$$
617
 

 29 28  0  0  0  0  0  0  0  0999 V2000
    9.0433  -28.3349    0.4310 O   0  0  0  0  0  0  0  0  0  0  0  0
    8.0539  -28.3285   -0.6232 C   0  0  0  0  0  0  0  0  0  0  0  0
    6.6918  -27.8753   -0.0221 C   0  0  0  0  0  0  0  0  0  0  0  0
    5.6110  -27.7793   -1.1648 C   0  0  0  0  0  0  0  0  0  0  0  0
    4.3447  -27.2856   -0.6609 O   0  0  0  0  0  0  0  0  0  0  0  0
    6.8928  -26.4572    0.5688 C   0  0  0  0  0  0  0  0  0  0  0  0
    6.1896  -28.8371    1.1532 C   0  0  0  0  0  0  0  0  0  0  0  0
    7.3312  -25.5397   -0.4534 O   0  0  0  0  0  0  0  0  0  0  0  0
    5.7355  -30.1649    0.7229 O   0  0  0  0  0  0  0  0  0  0  0  0
    3.5057  -28.2868   -0.3590 N   0  3  0  0  0  0  0  0  0  0  0  0
   10.2251  -28.7541   -0.0255 N   0  3  0  0  0  0  0  0  0  0  0  0
    6.6462  -31.0723    0.4200 N   0  3  0  0  0  0  0  0  0  0  0  0
    7.3448  -24.2958    0.0395 N   0  3  0  0  0  0  0  0  0  0  0  0
    7.7370  -23.2936   -0.7180 O   0  5  0  0  0  0  0  0  0  0  0  0
    7.0018  -24.1155    1.1459 O   0  0  0  0  0  0  0  0  0  0  0  0
   10.3529  -29.0859   -1.2947 O   0  5  0  0  0  0  0  0  0  0  0  0
   11.1441  -28.7971    0.7004 O   0  0  0  0  0  0  0  0  0  0  0  0
    6.2746  -32.2434   -0.0186 O   0  5  0  0  0  0  0  0  0  0  0  0
    7.7961  -30.8299    0.5371 O   0  0  0  0  0  0  0  0  0  0  0  0
    2.3479  -28.0114    0.1801 O   0  5  0  0  0  0  0  0  0  0  0  0
    3.8129  -29.3932   -0.5565 O   0  0  0  0  0  0  0  0  0  0  0  0
    8.3326  -27.6927   -1.3430 H   0  0  0  0  0  0  0  0  0  0  0  0
    7.9638  -29.2478   -1.0063 H   0  0  0  0  0  0  0  0  0  0  0  0
    5.9428  -27.1570   -1.8739 H   0  0  0  0  0  0  0  0  0  0  0  0
    5.4718  -28.6885   -1.5571 H   0  0  0  0  0  0  0  0  0  0  0  0
    6.0267  -26.1344    0.9507 H   0  0  0  0  0  0  0  0  0  0  0  0
    7.5822  -26.4972    1.2921 H   0  0  0  0  0  0  0  0  0  0  0  0
    6.9460  -28.9619    1.7952 H   0  0  0  0  0  0  0  0  0  0  0  0
    5.4281  -28.3855    1.6183 H   0  0  0  0  0  0  0  0  0  0  0  0
  1  2  1  0  0  0  0
  2  3  1  0  0  0  0
  3  4  1  0  0  0  0
  5  4  1  0  0  0  0
  3  6  1  0  0  0  0
  3  7  1  0  0  0  0
  6  8  1  0  0  0  0
  7  9  1  0  0  0  0
  5 10  1  0  0  0  0
  1 11  1  0  0  0  0
  9 12  1  0  0  0  0
  8 13  1  0  0  0  0
 13 14  1  0  0  0  0
 13 15  2  0  0  0  0
 11 16  1  0  0  0  0
 11 17  2  0  0  0  0
 12 18  1  0  0  0  0
 12 19  2  0  0  0  0
 10 20  1  0  0  0  0
 10 21  2  0  0  0  0
  2 22  1  0  0  0  0
  2 23  1  0  0  0  0
  4 24  1  0  0  0  0
  4 25  1  0  0  0  0
  6 26  1  0  0  0  0
  6 27  1  0  0  0  0
  7 28  1  0  0  0  0
  7 29  1  0  0  0  0
M  END
>  <Substance ID> (617)
617

>  <Mouse_Female_Canc> (617)
1

>  <SAL> (617)
1

>  <Rat_Male_Canc> (617)
2

>  <TD50_Rat> (617)
NP

>  <TD50_Mouse> (617)
NP

>  <Rat_Female_Canc> (617)
2

>  <Canc> (617)
2

>  <MolWeight> (617)
316.14

>  <Mouse_Male_Canc> (617)
1

>  <Mouse_Male_NTP> (617)
NE

>  <ChemName> (617)
Pentaerythritol tetranitrate

>  <Rat_Male_NTP> (617)
EE

>  <Reference> (617)
NTP365

>  <Formula> (617)
C5H8N4O12 

>  <SMILES> (617)
O(N(=O)=O)CC(CO(N(=O)=O))(CO(N(=O)=O))CO(N(=O)=O)

>  <Rat_Female_NTP> (617)
EE

>  <CAS> (617)
78-11-5

>  <Mouse_Female_NTP> (617)
NE

>  <Synonyms> (617)
1,3-dinitrato-2,2-bis(nitratomethyl)propane; 1,3-Propanediol, 2,2-bis[(nitrooxy)methyl]-, dinitrate (ester); 2,2-bis(hydroxymethyl)-1,3-propanediol tetranitrate; angicap; antora; baritrate; CHOT; deltrate-20; nitropentaerythrite; Nitropentaerythritol; Pentaerithrityl tetranitrate; Pentaerythrite tetranitrate; Penthrit; peridex-la; perityl; PETN; PETN, NF; quintrate; vasodiatol.

$$$$
618
 

 40 41  0  0  0  0  0  0  0  0999 V2000
    7.1866  -44.1255   -0.0515 C   0  0  0  0  0  0  0  0  0  0  0  0
    7.4277  -45.4065   -0.3395 C   0  0  0  0  0  0  0  0  0  0  0  0
    9.7990  -45.2023    0.1073 C   0  0  0  0  0  0  0  0  0  0  0  0
    9.5692  -43.7982    0.4245 C   0  0  0  0  0  0  0  0  0  0  0  0
    8.7766  -45.9701   -0.2560 C   0  0  0  0  0  0  0  0  0  0  0  0
    8.3405  -43.2875    0.3541 C   0  0  0  0  0  0  0  0  0  0  0  0
    2.0481  -44.5527    0.3020 C   0  0  0  0  0  0  0  0  0  0  0  0
    2.0518  -45.8694    0.1119 C   0  0  0  0  0  0  0  0  0  0  0  0
    4.4408  -45.8662   -0.2698 C   0  0  0  0  0  0  0  0  0  0  0  0
    4.4515  -44.4036   -0.0582 C   0  0  0  0  0  0  0  0  0  0  0  0
    3.3053  -46.5563   -0.1880 C   0  0  0  0  0  0  0  0  0  0  0  0
    3.2960  -43.7928    0.2119 C   0  0  0  0  0  0  0  0  0  0  0  0
    5.7182  -43.5119   -0.1395 C   0  0  0  0  0  0  0  0  0  0  0  0
    5.4465  -42.1764    0.3814 O   0  0  0  0  0  0  0  0  0  0  0  0
    6.0831  -41.1083   -0.3335 C   0  0  0  0  0  0  0  0  0  0  0  0
    5.5397  -39.7815    0.2257 C   0  0  0  0  0  0  0  0  0  0  0  0
    6.1904  -38.6451   -0.4310 N   0  0  0  0  0  0  0  0  0  0  0  0
    5.5929  -37.3987    0.0640 C   0  0  0  0  0  0  0  0  0  0  0  0
    7.6276  -38.6537   -0.1153 C   0  0  0  0  0  0  0  0  0  0  0  0
    6.6692  -45.9952   -0.6188 H   0  0  0  0  0  0  0  0  0  0  0  0
   10.7208  -45.5859    0.1627 H   0  0  0  0  0  0  0  0  0  0  0  0
   10.3361  -43.2164    0.6957 H   0  0  0  0  0  0  0  0  0  0  0  0
    8.9288  -46.9344   -0.4727 H   0  0  0  0  0  0  0  0  0  0  0  0
    8.1943  -42.3240    0.5784 H   0  0  0  0  0  0  0  0  0  0  0  0
    1.1905  -44.0808    0.5069 H   0  0  0  0  0  0  0  0  0  0  0  0
    1.1987  -46.3874    0.1741 H   0  0  0  0  0  0  0  0  0  0  0  0
    5.2955  -46.3424   -0.4765 H   0  0  0  0  0  0  0  0  0  0  0  0
    3.3107  -47.5459   -0.3320 H   0  0  0  0  0  0  0  0  0  0  0  0
    3.2825  -42.8032    0.3547 H   0  0  0  0  0  0  0  0  0  0  0  0
    5.8903  -43.4182   -1.1201 H   0  0  0  0  0  0  0  0  0  0  0  0
    7.0734  -41.1531   -0.2017 H   0  0  0  0  0  0  0  0  0  0  0  0
    5.8727  -41.1783   -1.3086 H   0  0  0  0  0  0  0  0  0  0  0  0
    4.5540  -39.7351    0.0639 H   0  0  0  0  0  0  0  0  0  0  0  0
    5.7189  -39.7405    1.2087 H   0  0  0  0  0  0  0  0  0  0  0  0
    6.0325  -36.6182   -0.3803 H   0  0  0  0  0  0  0  0  0  0  0  0
    5.7239  -37.3357    1.0534 H   0  0  0  0  0  0  0  0  0  0  0  0
    4.6146  -37.3922   -0.1434 H   0  0  0  0  0  0  0  0  0  0  0  0
    8.0724  -37.8782   -0.5633 H   0  0  0  0  0  0  0  0  0  0  0  0
    8.0361  -39.5059   -0.4422 H   0  0  0  0  0  0  0  0  0  0  0  0
    7.7525  -38.5827    0.8743 H   0  0  0  0  0  0  0  0  0  0  0  0
  1  2  2  0  0  0  0
  3  4  1  0  0  0  0
  1  6  1  0  0  0  0
  2  5  1  0  0  0  0
  5  3  2  0  0  0  0
  4  6  2  0  0  0  0
  7  8  2  0  0  0  0
  9 10  1  0  0  0  0
  7 12  1  0  0  0  0
  8 11  1  0  0  0  0
 11  9  2  0  0  0  0
 10 12  2  0  0  0  0
 10 13  1  0  0  0  0
 13  1  1  0  0  0  0
 13 14  1  0  0  0  0
 14 15  1  0  0  0  0
 15 16  1  0  0  0  0
 16 17  1  0  0  0  0
 17 18  1  0  0  0  0
 17 19  1  0  0  0  0
  2 20  1  0  0  0  0
  3 21  1  0  0  0  0
  4 22  1  0  0  0  0
  5 23  1  0  0  0  0
  6 24  1  0  0  0  0
  7 25  1  0  0  0  0
  8 26  1  0  0  0  0
  9 27  1  0  0  0  0
 11 28  1  0  0  0  0
 12 29  1  0  0  0  0
 13 30  1  0  0  0  0
 15 31  1  0  0  0  0
 15 32  1  0  0  0  0
 16 33  1  0  0  0  0
 16 34  1  0  0  0  0
 18 35  1  0  0  0  0
 18 36  1  0  0  0  0
 18 37  1  0  0  0  0
 19 38  1  0  0  0  0
 19 39  1  0  0  0  0
 19 40  1  0  0  0  0
M  END
>  <Substance ID> (618)
618

>  <Mouse_Female_Canc> (618)
1

>  <SAL> (618)
1

>  <Rat_Male_Canc> (618)
2

>  <TD50_Rat> (618)
NP

>  <TD50_Mouse> (618)
NP

>  <Rat_Female_Canc> (618)
2

>  <Canc> (618)
2

>  <MolWeight> (618)
255.36

>  <Mouse_Male_Canc> (618)
1

>  <Mouse_Male_NTP> (618)
NE

>  <ChemName> (618)
Diphenhydramine Hydrochloride

>  <Rat_Male_NTP> (618)
EE

>  <Reference> (618)
NTP355

>  <Formula> (618)
C17H21NO

>  <SMILES> (618)
CN(C)CCOC(c1ccccc1)c2ccccc2

>  <Rat_Female_NTP> (618)
EE

>  <CAS> (618)
147-24-0

>  <Mouse_Female_NTP> (618)
NE

>  <Synonyms> (618)
O-benzhydryldimethylaminoethanol hydrochloride; 2-benzhydryloxyethyl-N,N-dimethylammonium chloride; 2-(benzhydryloxy)-N,N-dimethylethylamine hydrochloride; 2-(diphenylmethoxy)-N,N-dimethylethanamine hydrochloride; 2-diphenylmethoxy-N,N-dimethylethylamine hydrochloride; alpha-(2-dimethylaminoethoxy)diphenylmethane hydrochloride; alpha-hydroxydiphenylmethane-beta-dimethylaminoethyl ether hydrochloride; Alledryl; allergan; Allergin; Allergina; allergival; Ambenyl; Amidryl; Bagodryl; BAX; beta-Dimethylaminoethanol diphenylmethyl ether hydrochloride; beta-dimethylaminoethyl benzhydryl ether hydrochloride; BENA; Benadryl; benadryl hydrochloride; bendylate; benodin; Benocten; Benylan; Benylin; Benzantin; Benzehist; Benzhydramine; benzhydramine hydrochloride; Dibendrin; Dibondrin; difenhydramine hydrochloride; Dihidral; Dihydral; dimedrol; dimethylamine benzhydryl ester hydrochloride; Diphantine; diphenylhydramine hydrochloride; Dabylen; denydryl; Dolestan; eldadryl; Ethanamine, 2-(diphenylmethoxy)-N,N,dimethyl-, hydrochloride; Felben; Fenylhist; Halbmond; Histacyl; Hydryllin; N,N-dimethyl-2-(diphenylmethoxy)ethylamine hydrochloride; Noctomin; resmin; restamin; Rohydra; S 8; Secundal-D; Sedopretten; Sekundal-D; sk-diphenhydramine; Syntedril; Valdrene; VENA; Wehydryl.

$$$$
619


 21 21  0  0  0  0  0  0  0  0999 V2000
    4.2384  -36.4530   -0.2779 O   0  0  0  0  0  0  0  0  0  0  0  0
    5.4675  -36.4386    0.4370 C   0  0  0  0  0  0  0  0  0  0  0  0
    5.9653  -35.1362   -0.1481 C   0  0  1  0  0  0  0  0  0  0  0  0
    4.8502  -34.2530    0.0105 O   0  0  0  0  0  0  0  0  0  0  0  0
    3.7361  -35.1761    0.1424 C   0  0  2  0  0  0  0  0  0  0  0  0
    7.2693  -34.6078    0.4721 C   0  0  0  0  0  0  0  0  0  0  0  0
    8.3105  -35.5670    0.2765 O   0  0  0  0  0  0  0  0  0  0  0  0
    2.4804  -34.7183   -0.6153 C   0  0  2  0  0  0  0  0  0  0  0  0
    1.8663  -32.8523    0.1238 I   0  0  0  0  0  0  0  0  0  0  0  0
    1.3550  -35.7485   -0.4108 C   0  0  0  0  0  0  0  0  0  0  0  0
    5.3390  -36.3942    1.4277 H   0  0  0  0  0  0  0  0  0  0  0  0
    6.0561  -37.2148    0.2112 H   0  0  0  0  0  0  0  0  0  0  0  0
    6.2413  -35.2416   -1.1034 H   0  0  0  0  0  0  0  0  0  0  0  0
    3.4131  -35.2231    1.0877 H   0  0  0  0  0  0  0  0  0  0  0  0
    7.5226  -33.7462    0.0323 H   0  0  0  0  0  0  0  0  0  0  0  0
    7.1353  -34.4560    1.4514 H   0  0  0  0  0  0  0  0  0  0  0  0
    9.1594  -35.2250    0.6793 H   0  0  0  0  0  0  0  0  0  0  0  0
    2.6861  -34.6404   -1.5908 H   0  0  0  0  0  0  0  0  0  0  0  0
    0.5371  -35.4516   -0.9036 H   0  0  0  0  0  0  0  0  0  0  0  0
    1.1464  -35.8259    0.5642 H   0  0  0  0  0  0  0  0  0  0  0  0
    1.6494  -36.6381   -0.7600 H   0  0  0  0  0  0  0  0  0  0  0  0
  1  2  1  0  0  0  0
  2  3  1  0  0  0  0
  3  4  1  0  0  0  0
  4  5  1  0  0  0  0
  5  1  1  0  0  0  0
  3  6  1  1  0  0  0
  6  7  1  0  0  0  0
  5  8  1  6  0  0  0
  8  9  1  0  0  0  0
  8 10  1  0  0  0  0
  2 11  1  0  0  0  0
  2 12  1  0  0  0  0
  3 13  1  0  0  0  0
  5 14  1  0  0  0  0
  6 15  1  0  0  0  0
  6 16  1  0  0  0  0
  7 17  1  0  0  0  0
  8 18  1  0  0  0  0
 10 19  1  0  0  0  0
 10 20  1  0  0  0  0
 10 21  1  0  0  0  0
M  END
>  <Substance ID> (619)
619

>  <Mouse_Female_Canc> (619)
3

>  <SAL> (619)
3

>  <Rat_Male_Canc> (619)
3

>  <TD50_Rat> (619)
101

>  <TD50_Mouse> (619)
138

>  <Rat_Female_Canc> (619)
1

>  <Canc> (619)
3

>  <MolWeight> (619)
258.06

>  <Mouse_Male_Canc> (619)
1

>  <Mouse_Male_NTP> (619)
NE

>  <ChemName> (619)
Iodinated glycerol

>  <Rat_Male_NTP> (619)
SE

>  <Reference> (619)
NTP340

>  <Formula> (619)
C6H11IO3

>  <SMILES> (619)
IC([C@@H]1O[C@@H](CO)CO1)C

>  <Rat_Female_NTP> (619)
NE

>  <CAS> (619)
5634-39-9

>  <Mouse_Female_NTP> (619)
SE

>  <Synonyms> (619)
2-(1-iodoethyl)-1,3-dioxolane-4-methanol; iodoglycerin; iodopropylidene glycerol; organidin.

$$$$
620
 

 13 12  0  0  0  0  0  0  0  0999 V2000
    4.5256  -63.0874   -0.0277 P   0  0  0  0  0  0  0  0  0  0  0  0
    5.3383  -62.5266    0.9301 O   0  0  0  0  0  0  0  0  0  0  0  0
    3.7925  -61.8559   -0.6829 O   0  0  0  0  0  0  0  0  0  0  0  0
    3.7187  -64.2793    0.6005 O   0  0  0  0  0  0  0  0  0  0  0  0
    2.4935  -62.0664   -1.3013 C   0  0  0  0  0  0  0  0  0  0  0  0
    2.4471  -64.0151    1.2511 C   0  0  0  0  0  0  0  0  0  0  0  0
    5.3051  -63.5448   -0.7708 H   0  0  0  0  0  0  0  0  0  0  0  0
    2.1556  -61.2009   -1.6709 H   0  0  0  0  0  0  0  0  0  0  0  0
    1.8499  -62.4101   -0.6174 H   0  0  0  0  0  0  0  0  0  0  0  0
    2.5803  -62.7331   -2.0416 H   0  0  0  0  0  0  0  0  0  0  0  0
    2.0640  -64.8722    1.5955 H   0  0  0  0  0  0  0  0  0  0  0  0
    1.8137  -63.6080    0.5930 H   0  0  0  0  0  0  0  0  0  0  0  0
    2.5871  -63.3831    2.0133 H   0  0  0  0  0  0  0  0  0  0  0  0
  1  2  2  0  0  0  0
  1  3  1  0  0  0  0
  1  4  1  0  0  0  0
  3  5  1  0  0  0  0
  4  6  1  0  0  0  0
  1  7  1  0  0  0  0
  5  8  1  0  0  0  0
  5  9  1  0  0  0  0
  5 10  1  0  0  0  0
  6 11  1  0  0  0  0
  6 12  1  0  0  0  0
  6 13  1  0  0  0  0
M  END
>  <Substance ID> (620)
620

>  <Mouse_Female_Canc> (620)
1

>  <SAL> (620)
3

>  <Rat_Male_Canc> (620)
3

>  <TD50_Rat> (620)
139

>  <TD50_Mouse> (620)
NP

>  <Rat_Female_Canc> (620)
2

>  <Canc> (620)
3

>  <MolWeight> (620)
110.05

>  <Mouse_Male_Canc> (620)
1

>  <Mouse_Male_NTP> (620)
NE

>  <ChemName> (620)
Dimethyl hydrogen phosphite

>  <Rat_Male_NTP> (620)
CE

>  <Reference> (620)
NTP287

>  <Formula> (620)
C2H7O3P

>  <SMILES> (620)
O=P(OC)OC

>  <Rat_Female_NTP> (620)
EE

>  <CAS> (620)
868-85-9

>  <Mouse_Female_NTP> (620)
NE

>  <Synonyms> (620)
Dimethyl Phosphite; dimethyl phosphonate; DMHP.

$$$$
621
  

118120  0  0  0  0  0  0  0  0999 V2000
   31.1774  -28.6798  -23.8635 C   0  0  1  0  0  0  0  0  0  1  0  0
   30.1850  -28.1482  -24.9270 C   0  0  0  0  0  0  0  0  0  2  0  0
   30.6054  -28.2909  -26.4159 C   0  0  1  0  0  0  0  0  0  3  0  0
   30.3475  -29.7130  -26.9754 C   0  0  1  0  0  0  0  0  0  4  0  0
   28.8454  -30.1228  -27.1291 C   0  0  2  0  0  0  0  0  0  5  0  0
   28.4339  -31.2830  -26.1715 C   0  0  1  0  0  0  0  0  0  6  0  0
   26.8997  -31.5611  -26.1883 C   0  0  2  0  0  0  0  0  0  7  0  0
   26.1660  -30.2917  -24.3423 O   0  0  0  0  0  0  0  0  0  8  0  0
   25.7122  -30.0810  -23.0124 C   0  0  1  0  0  0  0  0  0  9  0  0
   26.6587  -29.0476  -22.3447 C   0  0  1  0  0  0  0  0  0 10  0  0
   28.0965  -29.6068  -22.2677 C   0  0  1  0  0  0  0  0  0 11  0  0
   29.2617  -28.6209  -22.0279 C   0  0  1  0  0  0  0  0  0 12  0  0
   30.5469  -29.2333  -22.5805 C   0  0  0  0  0  0  0  0  0 13  0  0
   31.0690  -30.1519  -21.9864 O   0  0  0  0  0  0  0  0  0 14  0  0
   26.2712  -31.5746  -24.7941 C   0  0  0  0  0  0  0  0  0 15  0  0
   25.9041  -32.5774  -24.2142 O   0  0  0  0  0  0  0  0  0 16  0  0
   31.7285  -29.5415  -24.3060 H   0  0  0  0  0  0  0  0  0 17  0  0
   29.2031  -28.6547  -24.8135 H   0  0  0  0  0  0  0  0  0 18  0  0
   29.9949  -27.0727  -24.7062 H   0  0  0  0  0  0  0  0  0 19  0  0
   30.8329  -30.4036  -26.2548 H   0  0  0  0  0  0  0  0  0 20  0  0
   28.7391  -30.9316  -25.1602 H   0  0  0  0  0  0  0  0  0 21  0  0
   25.7891  -31.0258  -22.4230 H   0  0  0  0  0  0  0  0  0 22  0  0
   28.3221  -30.1243  -23.2256 H   0  0  0  0  0  0  0  0  0 23  0  0
   29.1123  -27.6881  -22.6119 H   0  0  0  0  0  0  0  0  0 24  0  0
   29.4395  -28.1947  -20.5620 C   0  0  0  0  0  0  0  0  0 25  0  0
   29.6743  -29.0543  -19.8941 H   0  0  0  0  0  0  0  0  0 26  0  0
   30.2774  -27.4662  -20.4629 H   0  0  0  0  0  0  0  0  0 27  0  0
   28.5237  -27.6966  -20.1713 H   0  0  0  0  0  0  0  0  0 28  0  0
   28.0868  -30.6133  -21.2778 O   0  0  0  0  0  0  0  0  0 29  0  0
   28.7820  -31.2408  -21.4303 H   0  0  0  0  0  0  0  0  0 30  0  0
   26.2416  -28.8591  -21.0072 O   0  0  0  0  0  0  0  0  0 31  0  0
   26.5855  -29.5823  -20.4982 H   0  0  0  0  0  0  0  0  0 32  0  0
   26.5718  -27.6831  -23.0558 C   0  0  0  0  0  0  0  0  0 33  0  0
   27.1242  -26.8874  -22.5083 H   0  0  0  0  0  0  0  0  0 34  0  0
   26.9702  -27.7392  -24.0943 H   0  0  0  0  0  0  0  0  0 35  0  0
   25.5278  -27.3053  -23.1104 H   0  0  0  0  0  0  0  0  0 36  0  0
   24.2203  -29.6793  -23.0433 C   0  0  0  0  0  0  0  0  0 37  0  0
   24.0611  -28.8169  -23.7314 H   0  0  0  0  0  0  0  0  0 38  0  0
   23.8933  -29.3558  -22.0274 H   0  0  0  0  0  0  0  0  0 39  0  0
   23.2960  -30.8199  -23.4948 C   0  0  0  0  0  0  0  0  0 40  0  0
   23.4109  -31.7162  -22.8428 H   0  0  0  0  0  0  0  0  0 41  0  0
   22.2266  -30.5078  -23.4493 H   0  0  0  0  0  0  0  0  0 42  0  0
   23.5036  -31.1241  -24.5460 H   0  0  0  0  0  0  0  0  0 43  0  0
   28.4265  -30.4056  -28.5858 C   0  0  0  0  0  0  0  0  0 44  0  0
   28.9120  -31.3292  -28.9740 H   0  0  0  0  0  0  0  0  0 45  0  0
   27.3287  -30.5394  -28.7022 H   0  0  0  0  0  0  0  0  0 46  0  0
   28.6817  -29.5543  -29.2581 H   0  0  0  0  0  0  0  0  0 47  0  0
   29.9238  -27.2044  -27.2761 C   0  0  0  0  0  0  0  0  0 48  0  0
   30.1689  -27.3258  -28.3556 H   0  0  0  0  0  0  0  0  0 49  0  0
   28.8160  -27.2101  -27.1754 H   0  0  0  0  0  0  0  0  0 50  0  0
   30.2618  -26.1854  -26.9777 H   0  0  0  0  0  0  0  0  0 51  0  0
   32.2077  -27.6170  -23.4387 C   0  0  0  0  0  0  0  0  0 52  0  0
   32.9598  -28.0433  -22.7349 H   0  0  0  0  0  0  0  0  0 53  0  0
   32.7726  -27.1994  -24.3014 H   0  0  0  0  0  0  0  0  0 54  0  0
   31.7105  -26.7642  -22.9221 H   0  0  0  0  0  0  0  0  0 55  0  0
   26.4712  -32.8075  -26.9865 C   0  0  0  0  0  0  0  0  0 56  0  0
   25.3606  -32.8731  -27.0580 H   0  0  0  0  0  0  0  0  0 57  0  0
   26.8628  -32.7883  -28.0285 H   0  0  0  0  0  0  0  0  0 58  0  0
   26.8217  -33.7537  -26.5161 H   0  0  0  0  0  0  0  0  0 59  0  0
   28.2287  -29.2516  -26.8107 H   0  0  0  0  0  0  0  0  0 60  0  0
   26.3904  -30.7031  -26.6872 H   0  0  0  0  0  0  0  0  0 61  0  0
   29.1861  -32.4411  -26.5120 O   0  0  0  0  0  0  0  0  0 62  0  0
   29.6844  -33.2703  -25.4830 C   0  0  2  0  0  0  0  0  0 63  0  0
   28.6255  -33.3138  -24.5720 O   0  0  0  0  0  0  0  0  0 64  0  0
   28.8795  -34.1110  -23.4284 C   0  0  1  0  0  0  0  0  0 65  0  0
   30.2024  -33.7356  -22.7465 C   0  0  1  0  0  0  0  0  0 66  0  0
   31.4259  -33.5861  -23.6702 C   0  0  1  0  0  0  0  0  0 67  0  0
   30.9724  -32.7206  -24.8575 C   0  0  0  0  0  0  0  0  0 68  0  0
   29.8492  -34.2787  -25.9363 H   0  0  0  0  0  0  0  0  0 69  0  0
   28.0662  -33.8470  -22.7044 H   0  0  0  0  0  0  0  0  0 70  0  0
   30.4337  -34.4674  -21.9340 H   0  0  0  0  0  0  0  0  0 71  0  0
   30.7862  -31.6883  -24.4890 H   0  0  0  0  0  0  0  0  0 72  0  0
   31.7638  -32.6760  -25.6401 H   0  0  0  0  0  0  0  0  0 73  0  0
   32.4153  -32.9452  -22.8665 O   0  0  0  0  0  0  0  0  0 74  0  0
   33.4880  -32.3357  -23.5602 C   0  0  0  0  0  0  0  0  0 75  0  0
   33.9876  -33.0492  -24.2533 H   0  0  0  0  0  0  0  0  0 76  0  0
   33.1327  -31.4306  -24.1025 H   0  0  0  0  0  0  0  0  0 77  0  0
   34.2344  -32.0014  -22.8023 H   0  0  0  0  0  0  0  0  0 78  0  0
   31.9935  -34.9496  -24.1150 C   0  0  0  0  0  0  0  0  0 79  0  0
   32.3096  -35.5589  -23.2377 H   0  0  0  0  0  0  0  0  0 80  0  0
   31.2686  -35.5575  -24.6911 H   0  0  0  0  0  0  0  0  0 81  0  0
   32.8747  -34.8413  -24.7849 H   0  0  0  0  0  0  0  0  0 82  0  0
   28.6440  -35.6017  -23.7216 C   0  0  0  0  0  0  0  0  0 83  0  0
   27.5817  -35.7809  -24.0091 H   0  0  0  0  0  0  0  0  0 84  0  0
   29.2557  -35.9989  -24.5577 H   0  0  0  0  0  0  0  0  0 85  0  0
   28.8551  -36.2237  -22.8217 H   0  0  0  0  0  0  0  0  0 86  0  0
   29.9720  -32.4902  -22.1091 O   0  0  0  0  0  0  0  0  0 87  0  0
   30.7900  -32.0351  -21.9242 H   0  0  0  0  0  0  0  0  0 88  0  0
   31.9996  -28.0480  -26.4823 O   0  0  0  0  0  0  0  0  0 89  0  0
   32.3474  -28.3851  -27.2957 H   0  0  0  0  0  0  0  0  0 90  0  0
   31.0303  -29.7973  -28.2231 O   0  0  0  0  0  0  0  0  0 91  0  0
   31.8883  -30.8999  -28.3837 C   0  0  2  0  0  0  0  0  0 92  0  0
   32.9475  -30.4777  -27.5657 O   0  0  0  0  0  0  0  0  0 93  0  0
   34.0238  -31.4003  -27.5753 C   0  0  1  0  0  0  0  0  0 94  0  0
   34.5664  -31.6061  -29.0035 C   0  0  0  0  0  0  0  0  0 95  0  0
   33.4448  -32.0246  -29.9732 C   0  0  1  0  0  0  0  0  0 96  0  0
   32.3348  -30.9666  -29.8363 C   0  0  1  0  0  0  0  0  0 97  0  0
   31.4163  -31.8444  -28.0137 H   0  0  0  0  0  0  0  0  0 98  0  0
   33.6565  -32.3733  -27.1613 H   0  0  0  0  0  0  0  0  0 99  0  0
   35.0308  -30.6525  -29.3440 H   0  0  0  0  0  0  0  0  0100  0  0
   35.3707  -32.3763  -28.9631 H   0  0  0  0  0  0  0  0  0101  0  0
   33.0102  -32.9799  -29.5885 H   0  0  0  0  0  0  0  0  0102  0  0
   32.6869  -29.9556  -30.1563 H   0  0  0  0  0  0  0  0  0103  0  0
   35.1229  -30.8552  -26.6485 C   0  0  0  0  0  0  0  0  0104  0  0
   34.7316  -30.6667  -25.6236 H   0  0  0  0  0  0  0  0  0105  0  0
   35.9694  -31.5745  -26.5619 H   0  0  0  0  0  0  0  0  0106  0  0
   35.5273  -29.8892  -27.0287 H   0  0  0  0  0  0  0  0  0107  0  0
   31.2177  -31.3071  -30.6229 O   0  0  0  0  0  0  0  0  0108  0  0
   30.5672  -30.6304  -30.5127 H   0  0  0  0  0  0  0  0  0109  0  0
   33.8508  -32.2681  -31.3595 N   0  0  0  0  0  0  0  0  0110  0  0
   34.7988  -33.3700  -31.4641 C   0  0  0  0  0  0  0  0  0111  0  0
   34.9409  -33.6564  -32.5322 H   0  0  0  0  0  0  0  0  0112  0  0
   35.7976  -33.1062  -31.0478 H   0  0  0  0  0  0  0  0  0113  0  0
   34.4165  -34.2770  -30.9411 H   0  0  0  0  0  0  0  0  0114  0  0
   34.3759  -31.0994  -32.0505 C   0  0  0  0  0  0  0  0  0115  0  0
   33.6228  -30.2823  -32.1011 H   0  0  0  0  0  0  0  0  0116  0  0
   35.3062  -30.7132  -31.5760 H   0  0  0  0  0  0  0  0  0117  0  0
   34.6141  -31.3520  -33.1097 H   0  0  0  0  0  0  0  0  0118  0  0
  1 13  1  0  0  0  0
  1  2  1  0  0  0  0
  1 52  1  0  0  0  0
  1 17  1  0  0  0  0
  2  3  1  0  0  0  0
  2 18  1  0  0  0  0
  2 19  1  0  0  0  0
  3  4  1  0  0  0  0
  3 48  1  0  0  0  0
  3 89  1  0  0  0  0
  4  5  1  0  0  0  0
  4 91  1  0  0  0  0
  4 20  1  0  0  0  0
  5  6  1  0  0  0  0
  5 44  1  0  0  0  0
  5 60  1  0  0  0  0
  6  7  1  0  0  0  0
  6 62  1  0  0  0  0
  6 21  1  0  0  0  0
  7 15  1  0  0  0  0
  7 56  1  0  0  0  0
  7 61  1  0  0  0  0
  8 15  1  0  0  0  0
  8  9  1  0  0  0  0
  9 10  1  0  0  0  0
  9 37  1  0  0  0  0
  9 22  1  0  0  0  0
 10 11  1  0  0  0  0
 10 33  1  0  0  0  0
 10 31  1  0  0  0  0
 11 12  1  0  0  0  0
 11 29  1  0  0  0  0
 11 23  1  0  0  0  0
 12 13  1  0  0  0  0
 12 24  1  0  0  0  0
 12 25  1  0  0  0  0
 13 14  2  0  0  0  0
 15 16  2  0  0  0  0
 25 26  1  0  0  0  0
 25 27  1  0  0  0  0
 25 28  1  0  0  0  0
 29 30  1  0  0  0  0
 31 32  1  0  0  0  0
 33 34  1  0  0  0  0
 33 35  1  0  0  0  0
 33 36  1  0  0  0  0
 37 38  1  0  0  0  0
 37 40  1  0  0  0  0
 37 39  1  0  0  0  0
 40 41  1  0  0  0  0
 40 42  1  0  0  0  0
 40 43  1  0  0  0  0
 44 45  1  0  0  0  0
 44 46  1  0  0  0  0
 44 47  1  0  0  0  0
 48 49  1  0  0  0  0
 48 50  1  0  0  0  0
 48 51  1  0  0  0  0
 52 53  1  0  0  0  0
 52 54  1  0  0  0  0
 52 55  1  0  0  0  0
 56 57  1  0  0  0  0
 56 58  1  0  0  0  0
 56 59  1  0  0  0  0
 62 63  1  0  0  0  0
 63 64  1  0  0  0  0
 63 68  1  0  0  0  0
 63 69  1  0  0  0  0
 64 65  1  0  0  0  0
 65 66  1  0  0  0  0
 65 70  1  0  0  0  0
 65 83  1  0  0  0  0
 66 67  1  0  0  0  0
 66 87  1  0  0  0  0
 66 71  1  0  0  0  0
 67 68  1  0  0  0  0
 67 74  1  0  0  0  0
 67 79  1  0  0  0  0
 68 72  1  0  0  0  0
 68 73  1  0  0  0  0
 74 75  1  0  0  0  0
 75 76  1  0  0  0  0
 75 77  1  0  0  0  0
 75 78  1  0  0  0  0
 79 80  1  0  0  0  0
 79 81  1  0  0  0  0
 79 82  1  0  0  0  0
 83 84  1  0  0  0  0
 83 85  1  0  0  0  0
 83 86  1  0  0  0  0
 87 88  1  0  0  0  0
 89 90  1  0  0  0  0
 91 92  1  0  0  0  0
 92 93  1  0  0  0  0
 92 97  1  0  0  0  0
 92 98  1  0  0  0  0
 93 94  1  0  0  0  0
 94 95  1  0  0  0  0
 94104  1  0  0  0  0
 94 99  1  0  0  0  0
 95 96  1  0  0  0  0
 95100  1  0  0  0  0
 95101  1  0  0  0  0
 96 97  1  0  0  0  0
 96110  1  0  0  0  0
 96102  1  0  0  0  0
 97103  1  0  0  0  0
 97108  1  0  0  0  0
104105  1  0  0  0  0
104106  1  0  0  0  0
104107  1  0  0  0  0
108109  1  0  0  0  0
110111  1  0  0  0  0
110115  1  0  0  0  0
111112  1  0  0  0  0
111113  1  0  0  0  0
111114  1  0  0  0  0
115116  1  0  0  0  0
115117  1  0  0  0  0
115118  1  0  0  0  0
M  END
>  <Substance ID> (621)
621

>  <Mouse_Female_Canc> (621)
1

>  <SAL> (621)
1

>  <Rat_Male_Canc> (621)
1

>  <TD50_Rat> (621)
NP

>  <TD50_Mouse> (621)
NP

>  <Rat_Female_Canc> (621)
1

>  <Canc> (621)
1

>  <MolWeight> (621)
1018.42

>  <Mouse_Male_Canc> (621)
1

>  <Mouse_Male_NTP> (621)
NE

>  <ChemName> (621)
Erythromycin stearate

>  <Rat_Male_NTP> (621)
NE

>  <Reference> (621)
NTP338

>  <Formula> (621)
C37H67NO13.C18H36O2 

>  <SMILES> (621)
[C@H]1([C@H]([C@H](O[C@H]2C[C@]([C@H]([C@H](O2)C)O)(OC)C)[C@H](C(O[C@@H]([C@@]([C@H]([C@H](C([C@@H](C[C@@]1(C)O)C)=O)C)O)(C)O)CC)=O)C)C)O[C@H]3([C@@H](O)[C@H](C[C@@H](O3)C)N(C)C).C(CCCCCCCCCCCCCC)CCC(O)=O

>  <Rat_Female_NTP> (621)
NE

>  <CAS> (621)
643-22-1

>  <Mouse_Female_NTP> (621)
NE

>  <Synonyms> (621)
-

$$$$
622
 

 20 20  0  0  0  0  0  0  0  0999 V2000
    2.3856  -79.1576   -0.0009 C   0  0  0  0  0  0  0  0  0  0  0  0
    2.3985  -80.4886   -0.0006 C   0  0  0  0  0  0  0  0  0  0  0  0
    4.8202  -80.5314    0.0007 C   0  0  0  0  0  0  0  0  0  0  0  0
    4.8062  -79.0686    0.0008 C   0  0  0  0  0  0  0  0  0  0  0  0
    3.6732  -81.2079    0.0001 C   0  0  0  0  0  0  0  0  0  0  0  0
    3.6462  -78.4132   -0.0004 C   0  0  0  0  0  0  0  0  0  0  0  0
    3.6331  -77.0163    0.0006 N   0  0  0  0  0  0  0  0  0  0  0  0
    4.8688  -76.2854    0.0007 C   0  0  0  0  0  0  0  0  0  0  0  0
    2.3838  -76.3099    0.0010 C   0  0  0  0  0  0  0  0  0  0  0  0
    1.5147  -78.6660   -0.0015 H   0  0  0  0  0  0  0  0  0  0  0  0
    1.5374  -80.9971   -0.0010 H   0  0  0  0  0  0  0  0  0  0  0  0
    5.6909  -81.0232    0.0009 H   0  0  0  0  0  0  0  0  0  0  0  0
    5.6674  -78.5604    0.0018 H   0  0  0  0  0  0  0  0  0  0  0  0
    3.6827  -82.2079    0.0003 H   0  0  0  0  0  0  0  0  0  0  0  0
    4.6763  -75.3042    0.0014 H   0  0  0  0  0  0  0  0  0  0  0  0
    5.3958  -76.5206   -0.8160 H   0  0  0  0  0  0  0  0  0  0  0  0
    5.3963  -76.5217    0.8168 H   0  0  0  0  0  0  0  0  0  0  0  0
    2.5572  -75.3251    0.0017 H   0  0  0  0  0  0  0  0  0  0  0  0
    1.8613  -76.5564    0.8172 H   0  0  0  0  0  0  0  0  0  0  0  0
    1.8613  -76.5553   -0.8156 H   0  0  0  0  0  0  0  0  0  0  0  0
  1  2  2  0  0  0  0
  3  4  1  0  0  0  0
  1  6  1  0  0  0  0
  2  5  1  0  0  0  0
  5  3  2  0  0  0  0
  4  6  2  0  0  0  0
  6  7  1  0  0  0  0
  7  8  1  0  0  0  0
  7  9  1  0  0  0  0
  1 10  1  0  0  0  0
  2 11  1  0  0  0  0
  3 12  1  0  0  0  0
  4 13  1  0  0  0  0
  5 14  1  0  0  0  0
  8 15  1  0  0  0  0
  8 16  1  0  0  0  0
  8 17  1  0  0  0  0
  9 18  1  0  0  0  0
  9 19  1  0  0  0  0
  9 20  1  0  0  0  0
M  END
>  <Substance ID> (622)
622

>  <Mouse_Female_Canc> (622)
2

>  <SAL> (622)
1

>  <Rat_Male_Canc> (622)
3

>  <TD50_Rat> (622)
125

>  <TD50_Mouse> (622)
NP

>  <Rat_Female_Canc> (622)
1

>  <Canc> (622)
3

>  <MolWeight> (622)
121.18

>  <Mouse_Male_Canc> (622)
1

>  <Mouse_Male_NTP> (622)
NE

>  <ChemName> (622)
N,N-Dimethylaniline

>  <Rat_Male_NTP> (622)
SE

>  <Reference> (622)
NTP360

>  <Formula> (622)
C8H11N

>  <SMILES> (622)
CN(C1=CC=CC=C1)C

>  <Rat_Female_NTP> (622)
NE

>  <CAS> (622)
121-69-7

>  <Mouse_Female_NTP> (622)
EE

>  <Synonyms> (622)
(dimethylamino)benzene; Dimethylaniline; Dimethylaniline, N-N-; dimethylphenylamine; Dimethylphylamine; DMA; N,N-dimethylbenzenamine; N,N-dimethylphenylamine; Versneller NL 63/10.

$$$$
623
 

 43 45  0  0  0  0  0  0  0  0999 V2000
   21.1527  -90.1166    0.0062 C   0  0  0  0  0  0  0  0  0  0  0  0
   21.1251  -91.4416    0.1238 C   0  0  0  0  0  0  0  0  0  0  0  0
   23.5697  -91.5238    0.1725 C   0  0  0  0  0  0  0  0  0  0  0  0
   23.5902  -90.0750    0.0449 C   0  0  0  0  0  0  0  0  0  0  0  0
   22.4052  -92.1765    0.2094 C   0  0  0  0  0  0  0  0  0  0  0  0
   22.4439  -89.4121   -0.0346 C   0  0  0  0  0  0  0  0  0  0  0  0
   15.7934  -89.3680   -0.0103 C   0  0  0  0  0  0  0  0  0  0  0  0
   16.3752  -90.5770    0.0439 C   0  0  0  0  0  0  0  0  0  0  0  0
   18.6104  -89.4711   -0.0476 C   0  0  0  0  0  0  0  0  0  0  0  0
   17.8742  -88.2231   -0.1004 C   0  0  0  0  0  0  0  0  0  0  0  0
   17.9184  -90.6284    0.0245 C   0  0  0  0  0  0  0  0  0  0  0  0
   16.5757  -88.2096   -0.0814 C   0  0  0  0  0  0  0  0  0  0  0  0
   10.4764  -90.1868    0.0539 C   0  0  0  0  0  0  0  0  0  0  0  0
   11.3991  -91.1611    0.0571 C   0  0  0  0  0  0  0  0  0  0  0  0
   13.1876  -89.5272    0.0173 C   0  0  0  0  0  0  0  0  0  0  0  0
   12.1402  -88.4907    0.0152 C   0  0  0  0  0  0  0  0  0  0  0  0
   12.8535  -90.8162    0.0378 C   0  0  0  0  0  0  0  0  0  0  0  0
   10.8653  -88.8174    0.0335 C   0  0  0  0  0  0  0  0  0  0  0  0
   14.4582  -88.9920   -0.0077 N   0  0  0  0  0  0  0  0  0  0  0  0
   20.0308  -89.2905   -0.0797 N   0  0  0  0  0  0  0  0  0  0  0  0
   18.6816  -86.6576   -0.1943 S   0  0  0  0  0  0  0  0  0  0  0  0
   19.9566  -86.7900   -1.0059 O   0  0  0  0  0  0  0  0  0  0  0  0
   17.7787  -85.6218   -0.8344 O   0  0  0  0  0  0  0  0  0  0  0  0
   19.1062  -86.1281    1.3811 O   0  5  0  0  0  0  0  0  0  0  0  0
   12.4818  -87.1111   -0.0071 N   0  3  0  0  0  0  0  0  0  0  0  0
    9.1184  -90.4609    0.0688 N   0  3  0  0  0  0  0  0  0  0  0  0
   13.7488  -86.6988   -0.0366 O   0  5  0  0  0  0  0  0  0  0  0  0
   11.6178  -86.3178    0.0002 O   0  0  0  0  0  0  0  0  0  0  0  0
    8.2676  -89.4489    0.0653 O   0  5  0  0  0  0  0  0  0  0  0  0
    8.7301  -91.5651    0.0824 O   0  0  0  0  0  0  0  0  0  0  0  0
   20.2540  -91.9317    0.1537 H   0  0  0  0  0  0  0  0  0  0  0  0
   24.4289  -92.0319    0.2326 H   0  0  0  0  0  0  0  0  0  0  0  0
   24.4605  -89.5831    0.0174 H   0  0  0  0  0  0  0  0  0  0  0  0
   22.3989  -93.1727    0.2959 H   0  0  0  0  0  0  0  0  0  0  0  0
   22.4575  -88.4161   -0.1239 H   0  0  0  0  0  0  0  0  0  0  0  0
   15.8292  -91.4132    0.0950 H   0  0  0  0  0  0  0  0  0  0  0  0
   18.3978  -91.5051    0.0646 H   0  0  0  0  0  0  0  0  0  0  0  0
   16.1105  -87.3252   -0.1196 H   0  0  0  0  0  0  0  0  0  0  0  0
   11.1133  -92.1193    0.0724 H   0  0  0  0  0  0  0  0  0  0  0  0
   13.5532  -91.5306    0.0401 H   0  0  0  0  0  0  0  0  0  0  0  0
   10.1674  -88.1012    0.0331 H   0  0  0  0  0  0  0  0  0  0  0  0
   14.3960  -87.9942   -0.0324 H   0  0  0  0  0  0  0  0  0  0  0  0
   20.2825  -88.3292   -0.1920 H   0  0  0  0  0  0  0  0  0  0  0  0
  1  2  2  0  0  0  0
  3  4  1  0  0  0  0
  1  6  1  0  0  0  0
  2  5  1  0  0  0  0
  5  3  2  0  0  0  0
  4  6  2  0  0  0  0
  7  8  2  0  0  0  0
  9 10  1  0  0  0  0
  7 12  1  0  0  0  0
  8 11  1  0  0  0  0
 11  9  2  0  0  0  0
 10 12  2  0  0  0  0
 13 14  2  0  0  0  0
 15 16  1  0  0  0  0
 13 18  1  0  0  0  0
 14 17  1  0  0  0  0
 17 15  2  0  0  0  0
 16 18  2  0  0  0  0
 15 19  1  0  0  0  0
 19  7  1  0  0  0  0
  9 20  1  0  0  0  0
 20  1  1  0  0  0  0
 10 21  1  0  0  0  0
 21 22  2  0  0  0  0
 21 23  2  0  0  0  0
 21 24  1  0  0  0  0
 16 25  1  0  0  0  0
 13 26  1  0  0  0  0
 25 27  1  0  0  0  0
 25 28  2  0  0  0  0
 26 29  1  0  0  0  0
 26 30  2  0  0  0  0
  2 31  1  0  0  0  0
  3 32  1  0  0  0  0
  4 33  1  0  0  0  0
  5 34  1  0  0  0  0
  6 35  1  0  0  0  0
  8 36  1  0  0  0  0
 11 37  1  0  0  0  0
 12 38  1  0  0  0  0
 14 39  1  0  0  0  0
 17 40  1  0  0  0  0
 18 41  1  0  0  0  0
 19 42  1  0  0  0  0
 20 43  1  0  0  0  0
M  END
>  <Substance ID> (623)
623

>  <Mouse_Female_Canc> (623)
1

>  <SAL> (623)
3

>  <Rat_Male_Canc> (623)
1

>  <TD50_Rat> (623)
1710

>  <TD50_Mouse> (623)
NP

>  <Rat_Female_Canc> (623)
3

>  <Canc> (623)
3

>  <MolWeight> (623)
452.39

>  <Mouse_Male_Canc> (623)
1

>  <Mouse_Male_NTP> (623)
NE

>  <ChemName> (623)
C.I. Acid Orange 3

>  <Rat_Male_NTP> (623)
NE

>  <Reference> (623)
NTP335

>  <Formula> (623)
C18H13N4O7SNa

>  <SMILES> (623)
[Na+].[O-][N+](=O)c3ccc(Nc2ccc(Nc1ccccc1)c(c2)S([O-])(=O)=O)c(c3)[N+]([O-])=O

>  <Rat_Female_NTP> (623)
CE

>  <CAS> (623)
6373-74-6

>  <Mouse_Female_NTP> (623)
NE

>  <Synonyms> (623)
5-((2,4-dinitrophenyl)amino)-2-(phenylamino)benzenesulfonic acid, monosodium salt; acid fast yellow ag; acid fast yellow E5R; acid leather light brown g; acid orange 3; acid orange no. 3; acid yellow e; airedale yellow e; amido yellow e; amido yellow ea; amido yellow ea-cf; anthralan yellow rrt; C.I. 10385; C.I. Orange 3; derma yellow p; erio fast yellow ae; nylomine acid yellow b-rd; sodium-4-(2,4-dinitroanilino)diphenylamine-2-sulfonate; superian yellow r; tectilon orange 3gt; tertracid light yellow 2R; vondacid fast yellow ae; xylene fast yellow es.

$$$$
624
 

 25 25  0  0  0  0  0  0  0  0999 V2000
   37.8896   -2.5617   -0.0068 C   0  0  0  0  0  0  0  0  0  0  0  0
   38.9670   -1.5246   -0.0135 N   0  0  0  0  0  0  0  0  0  0  0  0
   40.3156   -2.0238   -0.0074 C   0  0  0  0  0  0  0  0  0  0  0  0
   35.4655   -2.9031   -0.0077 C   0  0  0  0  0  0  0  0  0  0  0  0
   35.5813   -4.2247    0.0019 C   0  0  0  0  0  0  0  0  0  0  0  0
   38.0183   -4.1443    0.0038 C   0  0  0  0  0  0  0  0  0  0  0  0
   36.8880   -4.8476    0.0078 C   0  0  0  0  0  0  0  0  0  0  0  0
   36.6544   -2.0539   -0.0115 C   0  0  0  0  0  0  0  0  0  0  0  0
   34.4396   -5.0247    0.0061 N   0  0  0  0  0  0  0  0  0  0  0  0
   41.3889   -0.9461   -0.0068 C   0  0  0  0  0  0  0  0  0  0  0  0
   42.6544   -1.6190   -0.0020 O   0  0  0  0  0  0  0  0  0  0  0  0
   39.2040   -5.0012    0.0105 N   0  3  0  0  0  0  0  0  0  0  0  0
   39.0107   -6.3052    0.0130 O   0  5  0  0  0  0  0  0  0  0  0  0
   40.3104   -4.6336    0.0137 O   0  0  0  0  0  0  0  0  0  0  0  0
   38.7625   -0.5458   -0.0218 H   0  0  0  0  0  0  0  0  0  0  0  0
   40.4367   -2.5851    0.8113 H   0  0  0  0  0  0  0  0  0  0  0  0
   40.4423   -2.5898   -0.8220 H   0  0  0  0  0  0  0  0  0  0  0  0
   34.5572   -2.4848   -0.0123 H   0  0  0  0  0  0  0  0  0  0  0  0
   36.9439   -5.8460    0.0151 H   0  0  0  0  0  0  0  0  0  0  0  0
   36.5395   -1.0605   -0.0180 H   0  0  0  0  0  0  0  0  0  0  0  0
   34.5271   -6.0208    0.0133 H   0  0  0  0  0  0  0  0  0  0  0  0
   33.5332   -4.6024    0.0019 H   0  0  0  0  0  0  0  0  0  0  0  0
   41.3052   -0.3770   -0.8249 H   0  0  0  0  0  0  0  0  0  0  0  0
   41.3008   -0.3736    0.8084 H   0  0  0  0  0  0  0  0  0  0  0  0
   43.3916   -0.9434   -0.0015 H   0  0  0  0  0  0  0  0  0  0  0  0
  1  2  1  0  0  0  0
  2  3  1  0  0  0  0
  4  5  2  0  0  0  0
  6  1  1  0  0  0  0
  4  8  1  0  0  0  0
  5  7  1  0  0  0  0
  7  6  2  0  0  0  0
  1  8  2  0  0  0  0
  5  9  1  0  0  0  0
  3 10  1  0  0  0  0
 10 11  1  0  0  0  0
  6 12  1  0  0  0  0
 12 13  1  0  0  0  0
 12 14  2  0  0  0  0
  2 15  1  0  0  0  0
  3 16  1  0  0  0  0
  3 17  1  0  0  0  0
  4 18  1  0  0  0  0
  7 19  1  0  0  0  0
  8 20  1  0  0  0  0
  9 21  1  0  0  0  0
  9 22  1  0  0  0  0
 10 23  1  0  0  0  0
 10 24  1  0  0  0  0
 11 25  1  0  0  0  0
M  END
>  <Substance ID> (624)
624

>  <Mouse_Female_Canc> (624)
ND

>  <SAL> (624)
3

>  <Rat_Male_Canc> (624)
1

>  <TD50_Rat> (624)
NP

>  <TD50_Mouse> (624)
NP

>  <Rat_Female_Canc> (624)
1

>  <Canc> (624)
2

>  <MolWeight> (624)
197.19

>  <Mouse_Male_Canc> (624)
2

>  <Mouse_Male_NTP> (624)
EE

>  <ChemName> (624)
HC Red no. 3

>  <Rat_Male_NTP> (624)
NE

>  <Reference> (624)
NTP281

>  <Formula> (624)
C8H11N3O3

>  <SMILES> (624)
C1(=C(C=C(N)C=C1)[N+](=O)[O-])NCCO

>  <Rat_Female_NTP> (624)
NE

>  <CAS> (624)
2871-01-4

>  <Mouse_Female_NTP> (624)
ND

>  <Synonyms> (624)
2-(4-amino-2-nitroanilino)-ethanol; 2-((4-Amino-2-nitrophenyl)amino)ethanol; hc red 3; N-(2-hydroxyethyl)-2-nitro-p-phenylenediamine.

$$$$
625
 

  9  8  0  0  0  0  0  0  0  0999 V2000
   22.7672  -12.6380    0.0001 C   0  0  0  0  0  0  0  0  0  0  0  0
   24.0677  -11.8873    0.0002 C   0  0  0  0  0  0  0  0  0  0  0  0
   25.3073  -12.6028    0.0004 N   0  0  0  0  0  0  0  0  0  0  0  0
   24.0683  -10.3222    0.0003 S   0  0  0  0  0  0  0  0  0  0  0  0
   22.0068  -11.9886   -0.0000 H   0  0  0  0  0  0  0  0  0  0  0  0
   22.7136  -13.2131    0.8165 H   0  0  0  0  0  0  0  0  0  0  0  0
   22.7138  -13.2131   -0.8163 H   0  0  0  0  0  0  0  0  0  0  0  0
   26.1733  -12.1028    0.0005 H   0  0  0  0  0  0  0  0  0  0  0  0
   25.3074  -13.6028    0.0004 H   0  0  0  0  0  0  0  0  0  0  0  0
  1  2  1  0  0  0  0
  2  3  1  0  0  0  0
  2  4  2  0  0  0  0
  1  5  1  0  0  0  0
  1  6  1  0  0  0  0
  1  7  1  0  0  0  0
  3  8  1  0  0  0  0
  3  9  1  0  0  0  0
M  END
>  <Substance ID> (625)
625

>  <Mouse_Female_Canc> (625)
3

>  <SAL> (625)
1

>  <Rat_Male_Canc> (625)
3

>  <TD50_Rat> (625)
11.5

>  <TD50_Mouse> (625)
8.81

>  <Rat_Female_Canc> (625)
ND

>  <Canc> (625)
3

>  <MolWeight> (625)
75.13

>  <Mouse_Male_Canc> (625)
3

>  <Mouse_Male_NTP> (625)
ND

>  <ChemName> (625)
Thioacetamide

>  <Rat_Male_NTP> (625)
ND

>  <Reference> (625)
CPDB

>  <Formula> (625)
C2H5NS

>  <SMILES> (625)
CC(=S)N

>  <Rat_Female_NTP> (625)
ND

>  <CAS> (625)
62-55-5

>  <Mouse_Female_NTP> (625)
ND

>  <Synonyms> (625)
Acetothioamide; Ethanethioamide; TAA; Thiacetamide.

$$$$
626
 

 47 44  0  0  0  0  0  0  0  0999 V2000
   22.7002  -18.0019    0.2309 O   0  0  0  0  0  0  0  0  0  0  0  0
   23.0364  -16.8521    1.0098 C   0  0  0  0  0  0  0  0  0  0  0  0
   23.4969  -15.6203    0.0002 P   0  3  0  0  0  0  0  0  0  0  0  0
   24.8159  -16.0954   -0.8847 C   0  0  0  0  0  0  0  0  0  0  0  0
   25.8907  -16.4139    0.0014 O   0  0  0  0  0  0  0  0  0  0  0  0
   23.8879  -14.2840    0.9002 C   0  0  0  0  0  0  0  0  0  0  0  0
   24.2842  -13.2246    0.0270 O   0  0  0  0  0  0  0  0  0  0  0  0
   22.2473  -15.2498   -1.0244 C   0  0  0  0  0  0  0  0  0  0  0  0
   21.1124  -14.8409   -0.2584 O   0  0  0  0  0  0  0  0  0  0  0  0
   22.4221  -18.7465    0.8377 H   0  0  0  0  0  0  0  0  0  0  0  0
   22.2406  -16.5663    1.5436 H   0  0  0  0  0  0  0  0  0  0  0  0
   23.7899  -17.0764    1.6279 H   0  0  0  0  0  0  0  0  0  0  0  0
   24.5808  -16.9017   -1.4275 H   0  0  0  0  0  0  0  0  0  0  0  0
   25.0944  -15.3526   -1.4936 H   0  0  0  0  0  0  0  0  0  0  0  0
   26.6877  -16.7008   -0.5301 H   0  0  0  0  0  0  0  0  0  0  0  0
   23.0926  -13.9967    1.4340 H   0  0  0  0  0  0  0  0  0  0  0  0
   24.6419  -14.5068    1.5182 H   0  0  0  0  0  0  0  0  0  0  0  0
   24.5206  -12.4172    0.5676 H   0  0  0  0  0  0  0  0  0  0  0  0
   22.5243  -14.5065   -1.6334 H   0  0  0  0  0  0  0  0  0  0  0  0
   22.0108  -16.0555   -1.5673 H   0  0  0  0  0  0  0  0  0  0  0  0
   20.3572  -14.6168   -0.8743 H   0  0  0  0  0  0  0  0  0  0  0  0
   17.7589  -17.1902    0.0002 S   0  0  0  0  0  0  0  0  0  0  0  0
   16.5539  -17.2232    0.9211 O   0  0  0  0  0  0  0  0  0  0  0  0
   17.7253  -18.3958   -0.9199 O   0  0  0  0  0  0  0  0  0  0  0  0
   19.1827  -17.2252    0.9285 O   0  5  0  0  0  0  0  0  0  0  0  0
   17.7231  -15.7670   -0.9290 O   0  5  0  0  0  0  0  0  0  0  0  0
   10.7492  -18.0016    0.2300 O   0  0  0  0  0  0  0  0  0  0  0  0
   11.0855  -16.8520    1.0093 C   0  0  0  0  0  0  0  0  0  0  0  0
   11.5461  -15.6200   -0.0000 P   0  3  0  0  0  0  0  0  0  0  0  0
   12.8651  -16.0950   -0.8849 C   0  0  0  0  0  0  0  0  0  0  0  0
   13.9398  -16.4137    0.0013 O   0  0  0  0  0  0  0  0  0  0  0  0
   11.9372  -14.2839    0.9002 C   0  0  0  0  0  0  0  0  0  0  0  0
   12.3336  -13.2244    0.0270 O   0  0  0  0  0  0  0  0  0  0  0  0
   10.2965  -15.2492   -1.0245 C   0  0  0  0  0  0  0  0  0  0  0  0
    9.1617  -14.8403   -0.2584 O   0  0  0  0  0  0  0  0  0  0  0  0
   10.4710  -18.7463    0.8366 H   0  0  0  0  0  0  0  0  0  0  0  0
   10.2897  -16.5662    1.5431 H   0  0  0  0  0  0  0  0  0  0  0  0
   11.8389  -17.0765    1.6273 H   0  0  0  0  0  0  0  0  0  0  0  0
   12.6300  -16.9012   -1.4279 H   0  0  0  0  0  0  0  0  0  0  0  0
   13.1437  -15.3522   -1.4937 H   0  0  0  0  0  0  0  0  0  0  0  0
   14.7368  -16.7006   -0.5301 H   0  0  0  0  0  0  0  0  0  0  0  0
   11.1419  -13.9965    1.4339 H   0  0  0  0  0  0  0  0  0  0  0  0
   12.6911  -14.5068    1.5182 H   0  0  0  0  0  0  0  0  0  0  0  0
   12.5701  -12.4171    0.5677 H   0  0  0  0  0  0  0  0  0  0  0  0
   10.5736  -14.5058   -1.6334 H   0  0  0  0  0  0  0  0  0  0  0  0
   10.0599  -16.0548   -1.5676 H   0  0  0  0  0  0  0  0  0  0  0  0
    8.4065  -14.6160   -0.8742 H   0  0  0  0  0  0  0  0  0  0  0  0
  1  2  1  0  0  0  0
  2  3  1  0  0  0  0
  3  4  1  0  0  0  0
  3  6  1  0  0  0  0
  3  8  1  0  0  0  0
  4  5  1  0  0  0  0
  6  7  1  0  0  0  0
  8  9  1  0  0  0  0
  1 10  1  0  0  0  0
  2 11  1  0  0  0  0
  2 12  1  0  0  0  0
  4 13  1  0  0  0  0
  4 14  1  0  0  0  0
  5 15  1  0  0  0  0
  6 16  1  0  0  0  0
  6 17  1  0  0  0  0
  7 18  1  0  0  0  0
  8 19  1  0  0  0  0
  8 20  1  0  0  0  0
  9 21  1  0  0  0  0
 22 23  2  0  0  0  0
 22 24  2  0  0  0  0
 22 25  1  0  0  0  0
 22 26  1  0  0  0  0
 27 28  1  0  0  0  0
 28 29  1  0  0  0  0
 29 30  1  0  0  0  0
 29 32  1  0  0  0  0
 29 34  1  0  0  0  0
 30 31  1  0  0  0  0
 32 33  1  0  0  0  0
 34 35  1  0  0  0  0
 27 36  1  0  0  0  0
 28 37  1  0  0  0  0
 28 38  1  0  0  0  0
 30 39  1  0  0  0  0
 30 40  1  0  0  0  0
 31 41  1  0  0  0  0
 32 42  1  0  0  0  0
 32 43  1  0  0  0  0
 33 44  1  0  0  0  0
 34 45  1  0  0  0  0
 34 46  1  0  0  0  0
 35 47  1  0  0  0  0
M  END
>  <Substance ID> (626)
626

>  <Mouse_Female_Canc> (626)
1

>  <SAL> (626)
1

>  <Rat_Male_Canc> (626)
1

>  <TD50_Rat> (626)
NP

>  <TD50_Mouse> (626)
NP

>  <Rat_Female_Canc> (626)
1

>  <Canc> (626)
1

>  <MolWeight> (626)
406.31

>  <Mouse_Male_Canc> (626)
1

>  <Mouse_Male_NTP> (626)
NE

>  <ChemName> (626)
Tetrakis(hydroxymethyl)phosphonium sulfate

>  <Rat_Male_NTP> (626)
NE

>  <Reference> (626)
NTP296

>  <Formula> (626)
C8H24O12P2S

>  <SMILES> (626)
OC[P+](CO)(CO)CO.S(=O)(=O)([O-])[O-].OC[P+](CO)(CO)CO

>  <Rat_Female_NTP> (626)
NE

>  <CAS> (626)
55566-30-8

>  <Mouse_Female_NTP> (626)
NE

>  <Synonyms> (626)
Octakis(hydroxymethyl)diphosphonium sulfate; pyroset tko; tetrakis(hydroxymethyl)phosphonium sulfate (2:1); THPS.

$$$$
627


  8  7  0  0  0  0  0  0  0  0999 V2000
   39.8790  -38.6031   -0.0002 C   0  0  0  0  0  0  0  0  0  0  0  0
   41.0842  -37.6444   -0.0004 C   0  0  0  0  0  0  0  0  0  0  0  0
   42.7294  -38.6724    0.0004 Br  0  0  0  0  0  0  0  0  0  0  0  0
   39.0309  -38.0732   -0.0007 H   0  0  0  0  0  0  0  0  0  0  0  0
   39.9110  -39.1794    0.8164 H   0  0  0  0  0  0  0  0  0  0  0  0
   39.9113  -39.1801   -0.8164 H   0  0  0  0  0  0  0  0  0  0  0  0
   41.0516  -37.0686   -0.8173 H   0  0  0  0  0  0  0  0  0  0  0  0
   41.0512  -37.0678    0.8160 H   0  0  0  0  0  0  0  0  0  0  0  0
  1  2  1  0  0  0  0
  2  3  1  0  0  0  0
  1  4  1  0  0  0  0
  1  5  1  0  0  0  0
  1  6  1  0  0  0  0
  2  7  1  0  0  0  0
  2  8  1  0  0  0  0
M  END
>  <Substance ID> (627)
627

>  <Mouse_Female_Canc> (627)
3

>  <SAL> (627)
3

>  <Rat_Male_Canc> (627)
3

>  <TD50_Rat> (627)
149

>  <TD50_Mouse> (627)
535

>  <Rat_Female_Canc> (627)
2

>  <Canc> (627)
3

>  <MolWeight> (627)
108.97

>  <Mouse_Male_Canc> (627)
2

>  <Mouse_Male_NTP> (627)
EE

>  <ChemName> (627)
Bromoethane

>  <Rat_Male_NTP> (627)
SE

>  <Reference> (627)
NTP363

>  <Formula> (627)
C2H5Br

>  <SMILES> (627)
CCBr

>  <Rat_Female_NTP> (627)
EE

>  <CAS> (627)
74-96-4

>  <Mouse_Female_NTP> (627)
CE

>  <Synonyms> (627)
1-Bromoethane; bromic ether; Ethyl bromide; halon 2001; hydrobromic ether; Monobromoethane.

$$$$
628
 

  6  5  0  0  0  0  0  0  0  0999 V2000
   39.3730  -47.4816   -0.0001 Br  0  0  0  0  0  0  0  0  0  0  0  0
   41.0708  -46.6253    0.0003 C   0  0  0  0  0  0  0  0  0  0  0  0
   42.1843  -47.3551   -0.0006 C   0  0  0  0  0  0  0  0  0  0  0  0
   41.1273  -45.6269    0.0011 H   0  0  0  0  0  0  0  0  0  0  0  0
   43.0772  -46.9048   -0.0004 H   0  0  0  0  0  0  0  0  0  0  0  0
   42.1278  -48.3535   -0.0014 H   0  0  0  0  0  0  0  0  0  0  0  0
  1  2  1  0  0  0  0
  2  3  2  0  0  0  0
  2  4  1  0  0  0  0
  3  5  1  0  0  0  0
  3  6  1  0  0  0  0
M  END
>  <Substance ID> (628)
628

>  <Mouse_Female_Canc> (628)
ND

>  <SAL> (628)
ND

>  <Rat_Male_Canc> (628)
3

>  <TD50_Rat> (628)
18.5

>  <TD50_Mouse> (628)
ND

>  <Rat_Female_Canc> (628)
3

>  <Canc> (628)
3

>  <MolWeight> (628)
106.95

>  <Mouse_Male_Canc> (628)
ND

>  <Mouse_Male_NTP> (628)
ND

>  <ChemName> (628)
Vinyl bromide

>  <Rat_Male_NTP> (628)
ND

>  <Reference> (628)
CPDB

>  <Formula> (628)
C2H3Br

>  <SMILES> (628)
C=CBr

>  <Rat_Female_NTP> (628)
ND

>  <CAS> (628)
593-60-2

>  <Mouse_Female_NTP> (628)
ND

>  <Synonyms> (628)
Bromoethene; bromoethylene; Monobromoethylene; Vinyl-13C2 Bromide (gas); vinyl bromide; VINYL BROMIDE, INHIBITED.

$$$$
629
 

 13 13  0  0  0  0  0  0  0  0999 V2000
   34.7776  -65.8104   -0.0005 C   0  0  0  0  0  0  0  0  0  0  0  0
   34.7778  -67.1420    0.0000 C   0  0  0  0  0  0  0  0  0  0  0  0
   37.1984  -67.2081    0.0001 C   0  0  0  0  0  0  0  0  0  0  0  0
   37.1977  -65.7451    0.0008 C   0  0  0  0  0  0  0  0  0  0  0  0
   36.0453  -67.8731    0.0001 C   0  0  0  0  0  0  0  0  0  0  0  0
   36.0452  -65.0788    0.0006 C   0  0  0  0  0  0  0  0  0  0  0  0
   36.0447  -63.6871   -0.0000 O   0  0  0  0  0  0  0  0  0  0  0  0
   38.6947  -64.8810    0.0005 Cl  0  0  0  0  0  0  0  0  0  0  0  0
   38.6949  -68.0716   -0.0005 Cl  0  0  0  0  0  0  0  0  0  0  0  0
   36.0456  -69.6021   -0.0007 Cl  0  0  0  0  0  0  0  0  0  0  0  0
   33.2813  -68.0060   -0.0003 Cl  0  0  0  0  0  0  0  0  0  0  0  0
   33.2808  -64.9470   -0.0002 Cl  0  0  0  0  0  0  0  0  0  0  0  0
   36.9872  -63.3530    0.0008 H   0  0  0  0  0  0  0  0  0  0  0  0
  1  2  2  0  0  0  0
  3  4  1  0  0  0  0
  1  6  1  0  0  0  0
  2  5  1  0  0  0  0
  5  3  2  0  0  0  0
  4  6  2  0  0  0  0
  6  7  1  0  0  0  0
  4  8  1  0  0  0  0
  3  9  1  0  0  0  0
  5 10  1  0  0  0  0
  2 11  1  0  0  0  0
  1 12  1  0  0  0  0
  7 13  1  0  0  0  0
M  END
>  <Substance ID> (629)
629

>  <Mouse_Female_Canc> (629)
3

>  <SAL> (629)
1

>  <Rat_Male_Canc> (629)
1

>  <TD50_Rat> (629)
13.1

>  <TD50_Mouse> (629)
23

>  <Rat_Female_Canc> (629)
3

>  <Canc> (629)
3

>  <MolWeight> (629)
266.34

>  <Mouse_Male_Canc> (629)
3

>  <Mouse_Male_NTP> (629)
CE

>  <ChemName> (629)
2,3,4,5,6-Pentachlorophenol, technical grade

>  <Rat_Male_NTP> (629)
ND

>  <Reference> (629)
CPDB & NTP349

>  <Formula> (629)
C6HCl5O

>  <SMILES> (629)
OC1=C(C(=C(C(=C1Cl)Cl)Cl)Cl)Cl

>  <Rat_Female_NTP> (629)
ND

>  <CAS> (629)
87-86-5

>  <Mouse_Female_NTP> (629)
CE

>  <Synonyms> (629)
Chem-tol; Chlorophen; cryptogil oil; dowcide 7; Dowicide 7; Dowicide EC-7; dow pentachlorophenol dp-2 antimicrobial; Dura-Treet; durotox; EP 30; Forepen; fungifen; glazd penta; grundier arbezol; lauxtol; lauxtol a; liroprem; Osmoplastic; Oz-88; PCP; penchlorol; Penta; pentachlorofenol; Pentachlorophenate; pentachloro-Phenol; Pentachlorophenol; pentachlorophenol, dp-2; Pentacon; penta-kil; Penwar; peratox; permacide; permagard; permasan; permatox dp-2; permatox penta; permite; Pol-NU; priltox; santobrite; Santophen 20; Sinituho; term-i-trol; thompson's wood fix.

$$$$
630
 

  0  0  0  0  0  0  0  0  0  0999 V2000
M  END
>  <Substance ID> (630)
630

>  <Mouse_Female_Canc> (630)
1

>  <SAL> (630)
1

>  <Rat_Male_Canc> (630)
1

>  <TD50_Rat> (630)
NP

>  <TD50_Mouse> (630)
NP

>  <Rat_Female_Canc> (630)
1

>  <Canc> (630)
1

>  <MolWeight> (630)
Unspecified 

>  <Mouse_Male_Canc> (630)
1

>  <Mouse_Male_NTP> (630)
ND

>  <ChemName> (630)
Gum arabic

>  <Rat_Male_NTP> (630)
ND

>  <Reference> (630)
NTP227

>  <Formula> (630)
Unspecified 

>  <SMILES> (630)
Unspecified 

>  <Rat_Female_NTP> (630)
ND

>  <CAS> (630)
9000-01-5

>  <Mouse_Female_NTP> (630)
ND

>  <Synonyms> (630)
Acacia; Acacia arabica gum africa; Acacia Gum; Acacia senegal l. willd gum west africa; acacia syrup; Arabic Gum; Gum acacia; Gum senegal; indian gum; Senegal gum.

$$$$
631


  8  7  0  0  0  0  0  0  0  0999 V2000
   24.8085  -57.7838   -0.0000 N   0  0  0  0  0  0  0  0  0  0  0  0
   26.0482  -57.0679   -0.0002 C   0  0  0  0  0  0  0  0  0  0  0  0
   27.2880  -57.7835   -0.0010 N   0  0  0  0  0  0  0  0  0  0  0  0
   26.0480  -55.5032    0.0006 S   0  0  0  0  0  0  0  0  0  0  0  0
   23.9425  -57.2839    0.0006 H   0  0  0  0  0  0  0  0  0  0  0  0
   24.8086  -58.7838   -0.0005 H   0  0  0  0  0  0  0  0  0  0  0  0
   28.1539  -57.2835   -0.0011 H   0  0  0  0  0  0  0  0  0  0  0  0
   27.2881  -58.7835   -0.0016 H   0  0  0  0  0  0  0  0  0  0  0  0
  1  2  1  0  0  0  0
  2  3  1  0  0  0  0
  2  4  2  0  0  0  0
  1  5  1  0  0  0  0
  1  6  1  0  0  0  0
  3  7  1  0  0  0  0
  3  8  1  0  0  0  0
M  END
>  <Substance ID> (631)
631

>  <Mouse_Female_Canc> (631)
1

>  <SAL> (631)
1

>  <Rat_Male_Canc> (631)
3

>  <TD50_Rat> (631)
98.5

>  <TD50_Mouse> (631)
NP

>  <Rat_Female_Canc> (631)
1

>  <Canc> (631)
3

>  <MolWeight> (631)
76.12

>  <Mouse_Male_Canc> (631)
ND

>  <Mouse_Male_NTP> (631)
ND

>  <ChemName> (631)
Thiourea

>  <Rat_Male_NTP> (631)
ND

>  <Reference> (631)
CPDB

>  <Formula> (631)
CH4N2S

>  <SMILES> (631)
NC(=S)N

>  <Rat_Female_NTP> (631)
ND

>  <CAS> (631)
62-56-6

>  <Mouse_Female_NTP> (631)
ND

>  <Synonyms> (631)
2-Thiourea; Isothiourea; sulfocarbamide; sulfouren; sulourea; Thiocarbamide; Thiurea; THU.

$$$$
632
 

 17 17  0  0  0  0  0  0  0  0999 V2000
    4.2932   -5.4281   -0.0008 C   0  0  0  0  0  0  0  0  0  0  0  0
    4.2933   -6.7598   -0.0006 C   0  0  0  0  0  0  0  0  0  0  0  0
    6.7152   -6.8264   -0.0001 C   0  0  0  0  0  0  0  0  0  0  0  0
    6.7156   -5.3619    0.0001 C   0  0  0  0  0  0  0  0  0  0  0  0
    5.5615   -7.4922   -0.0003 C   0  0  0  0  0  0  0  0  0  0  0  0
    5.5621   -4.6958   -0.0000 C   0  0  0  0  0  0  0  0  0  0  0  0
    5.5621   -3.1950    0.0001 C   0  0  0  0  0  0  0  0  0  0  0  0
    5.5610   -8.8879    0.0001 N   0  0  0  0  0  0  0  0  0  0  0  0
    3.4272   -4.9281   -0.0013 H   0  0  0  0  0  0  0  0  0  0  0  0
    3.4272   -7.2597   -0.0007 H   0  0  0  0  0  0  0  0  0  0  0  0
    7.5811   -7.3266   -0.0002 H   0  0  0  0  0  0  0  0  0  0  0  0
    7.5817   -4.8620    0.0004 H   0  0  0  0  0  0  0  0  0  0  0  0
    6.5047   -2.8612    0.0006 H   0  0  0  0  0  0  0  0  0  0  0  0
    5.0903   -2.8612    0.8163 H   0  0  0  0  0  0  0  0  0  0  0  0
    5.0912   -2.8611   -0.8165 H   0  0  0  0  0  0  0  0  0  0  0  0
    6.4269   -9.3882    0.0003 H   0  0  0  0  0  0  0  0  0  0  0  0
    4.6949   -9.3877    0.0002 H   0  0  0  0  0  0  0  0  0  0  0  0
  1  2  2  0  0  0  0
  3  4  1  0  0  0  0
  1  6  1  0  0  0  0
  2  5  1  0  0  0  0
  5  3  2  0  0  0  0
  4  6  2  0  0  0  0
  6  7  1  0  0  0  0
  5  8  1  0  0  0  0
  1  9  1  0  0  0  0
  2 10  1  0  0  0  0
  3 11  1  0  0  0  0
  4 12  1  0  0  0  0
  7 13  1  0  0  0  0
  7 14  1  0  0  0  0
  7 15  1  0  0  0  0
  8 16  1  0  0  0  0
  8 17  1  0  0  0  0
M  END
>  <Substance ID> (632)
632

>  <Mouse_Female_Canc> (632)
3

>  <SAL> (632)
3

>  <Rat_Male_Canc> (632)
1

>  <TD50_Rat> (632)
NP

>  <TD50_Mouse> (632)
83.5

>  <Rat_Female_Canc> (632)
ND

>  <Canc> (632)
3

>  <MolWeight> (632)
107.15

>  <Mouse_Male_Canc> (632)
3

>  <Mouse_Male_NTP> (632)
ND

>  <ChemName> (632)
p-Toluidine Hydrochloride

>  <Rat_Male_NTP> (632)
ND

>  <Reference> (632)
CPDB

>  <Formula> (632)
C7H9N

>  <SMILES> (632)
C1(=CC=C(N)C=C1)C

>  <Rat_Female_NTP> (632)
ND

>  <CAS> (632)
540-23-8

>  <Mouse_Female_NTP> (632)
ND

>  <Synonyms> (632)
4-aminotoluene hydrochloride; p-toluidinium chloride.

$$$$
633
 

 41 43  0  0  0  0  0  0  0  0999 V2000
   11.3959  -17.2202   -0.6758 C   0  0  2  0  0  0  0  0  0  0  0  0
   11.7139  -15.8402   -0.7086 C   0  0  0  0  0  0  0  0  0  0  0  0
    3.1605  -18.0063   -0.0573 C   0  0  0  0  0  0  0  0  0  0  0  0
    3.1943  -19.3297    0.0860 C   0  0  0  0  0  0  0  0  0  0  0  0
    5.5896  -19.2949    0.4744 C   0  0  0  0  0  0  0  0  0  0  0  0
    5.5529  -17.8340    0.3085 C   0  0  0  0  0  0  0  0  0  0  0  0
    4.4663  -20.0046    0.3642 C   0  0  0  0  0  0  0  0  0  0  0  0
    4.3941  -17.2270    0.0549 C   0  0  0  0  0  0  0  0  0  0  0  0
    6.7191  -17.0615    0.3876 O   0  0  0  0  0  0  0  0  0  0  0  0
    7.8900  -17.8399    0.6822 C   0  0  0  0  0  0  0  0  0  0  0  0
    9.0614  -17.0748    0.1456 C   0  0  0  0  0  0  0  0  0  0  0  0
   10.3808  -17.5485    0.3094 N   0  0  0  0  0  0  0  0  0  0  0  0
    8.8432  -16.0480   -0.5043 O   0  0  0  0  0  0  0  0  0  0  0  0
   12.8798  -15.9754   -0.3055 N   0  0  0  0  0  0  0  0  0  0  0  0
   13.0345  -17.5191   -0.2460 C   0  0  2  0  0  0  0  0  0  0  0  0
   14.0092  -17.2128    1.3069 S   0  0  0  0  0  0  0  0  0  0  0  0
   14.9575  -15.7840    0.7165 C   0  0  0  0  0  0  0  0  0  0  0  0
   13.7526  -14.9882    0.3436 C   0  0  2  0  0  0  0  0  0  0  0  0
   11.0001  -14.8341   -0.7947 O   0  0  0  0  0  0  0  0  0  0  0  0
   15.8590  -15.0934    1.7605 C   0  0  0  0  0  0  0  0  0  0  0  0
   15.7987  -16.1763   -0.5211 C   0  0  0  0  0  0  0  0  0  0  0  0
   13.9609  -13.6759   -0.4095 C   0  0  0  0  0  0  0  0  0  0  0  0
   15.1675  -12.9831   -0.3306 O   0  5  0  0  0  0  0  0  0  0  0  0
   13.0505  -13.2162   -1.1069 O   0  0  0  0  0  0  0  0  0  0  0  0
   11.1078  -17.6117   -1.6598 H   0  0  0  0  0  0  0  0  0  0  0  0
   13.6960  -17.6193   -1.1071 H   0  0  0  0  0  0  0  0  0  0  0  0
    2.2925  -17.5452   -0.2414 H   0  0  0  0  0  0  0  0  0  0  0  0
    2.3526  -19.8633    0.0040 H   0  0  0  0  0  0  0  0  0  0  0  0
    6.4557  -19.7551    0.6696 H   0  0  0  0  0  0  0  0  0  0  0  0
    4.4912  -20.9986    0.4714 H   0  0  0  0  0  0  0  0  0  0  0  0
    4.3673  -16.2339   -0.0593 H   0  0  0  0  0  0  0  0  0  0  0  0
    7.9824  -17.9632    1.6702 H   0  0  0  0  0  0  0  0  0  0  0  0
    7.8300  -18.7341    0.2384 H   0  0  0  0  0  0  0  0  0  0  0  0
   10.6163  -18.1095    1.1030 H   0  0  0  0  0  0  0  0  0  0  0  0
   13.3376  -14.5775    1.1554 H   0  0  0  0  0  0  0  0  0  0  0  0
   16.3340  -14.3236    1.3343 H   0  0  0  0  0  0  0  0  0  0  0  0
   16.5307  -15.7483    2.1069 H   0  0  0  0  0  0  0  0  0  0  0  0
   15.2976  -14.7601    2.5180 H   0  0  0  0  0  0  0  0  0  0  0  0
   16.3170  -15.3820   -0.8379 H   0  0  0  0  0  0  0  0  0  0  0  0
   15.1919  -16.4906   -1.2512 H   0  0  0  0  0  0  0  0  0  0  0  0
   16.4318  -16.9104   -0.2753 H   0  0  0  0  0  0  0  0  0  0  0  0
  1 15  1  0  0  0  0
 14  2  1  0  0  0  0
  2  1  1  0  0  0  0
  3  4  2  0  0  0  0
  5  6  1  0  0  0  0
  3  8  1  0  0  0  0
  4  7  1  0  0  0  0
  7  5  2  0  0  0  0
  6  8  2  0  0  0  0
  6  9  1  0  0  0  0
  9 10  1  0  0  0  0
 10 11  1  0  0  0  0
 11 12  1  0  0  0  0
 11 13  2  0  0  0  0
 12  1  1  0  0  0  0
 14 15  1  0  0  0  0
 16 17  1  0  0  0  0
 17 18  1  0  0  0  0
 18 14  1  0  0  0  0
 15 16  1  0  0  0  0
  2 19  2  0  0  0  0
 17 20  1  0  0  0  0
 17 21  1  0  0  0  0
 18 22  1  6  0  0  0
 22 23  1  0  0  0  0
 22 24  2  0  0  0  0
  1 25  1  6  0  0  0
 15 26  1  6  0  0  0
  3 27  1  0  0  0  0
  4 28  1  0  0  0  0
  5 29  1  0  0  0  0
  7 30  1  0  0  0  0
  8 31  1  0  0  0  0
 10 32  1  0  0  0  0
 10 33  1  0  0  0  0
 12 34  1  0  0  0  0
 18 35  1  0  0  0  0
 20 36  1  0  0  0  0
 20 37  1  0  0  0  0
 20 38  1  0  0  0  0
 21 39  1  0  0  0  0
 21 40  1  0  0  0  0
 21 41  1  0  0  0  0
M  END
>  <Substance ID> (633)
633

>  <Mouse_Female_Canc> (633)
1

>  <SAL> (633)
1

>  <Rat_Male_Canc> (633)
1

>  <TD50_Rat> (633)
NP

>  <TD50_Mouse> (633)
NP

>  <Rat_Female_Canc> (633)
1

>  <Canc> (633)
1

>  <MolWeight> (633)
388.48

>  <Mouse_Male_Canc> (633)
1

>  <Mouse_Male_NTP> (633)
NE

>  <ChemName> (633)
Penicillin VK

>  <Rat_Male_NTP> (633)
NE

>  <Reference> (633)
NTP336

>  <Formula> (633)
C16H17N2O5SK

>  <SMILES> (633)
N12([C@@H]([C@@H](C1=O)NC(COC3=CC=CC=C3)=O)SC([C@@H]2C(=O)[O-])(C)C).[K+]

>  <Rat_Female_NTP> (633)
NE

>  <CAS> (633)
132-98-9

>  <Mouse_Female_NTP> (633)
NE

>  <Synonyms> (633)
3,3-dimethyl-7-oxo-6-(2-phenoxy-acetamido)-4-thia-1-azabicyclo[3.2.0]heptane-2-carboxylic acid monopotassium salt; 4-Thia-1-azabicyclo[3.2.0]heptane-2-carboxylic acid, 3,3-dimethyl-7-oxo-6-[(phenoxyacetyl)amino]-, monopotassium salt, [2S-(2alpha,5alpha,6beta)]-; ospeneff; pedipen; penagen; pencompren; pen-vee-k; penvikal; Pen-v-k; pfizerpen vk; penicillin potassium phenoxymethyl; Penicillin V Potassium; phenoxymethylpenicillin potassium; PVK; qidpen vk; robicillin vk; rocillin-vk; roscopenin; sk-penicillin vk; stabillin vk syrup 125; stabillin vk syrup 62.5; sumapen vk; suspen; uticillin vk; V-CIL-K; v-cillin-k; veetids; Vepen; 4-thia-1-azobicyclo[3.2.0]heptane-2-carboxylic acid, 3,3-dimethyl-7-oxo-6-(2-phenoxy-acetamido)-, monopotassium salt; antibiocin; apsin vk; arcacil; arcasin; beromycin; beromycin 400; distakaps v-k; distaquaine v-k; betapen-vk; calciopen k; cliacil; compocillin-vk; D-alpha-phenoxymethylpencillinate k salt; dowpen v-k; DQV-K; fenoxypen; icipen; isocillin; ispenoral; ledercillin vk; megacillin oral; oracil-vk; orapen.

$$$$
634
 

  0  0  0  0  0  0  0  0  0  0999 V2000
M  END
>  <Substance ID> (634)
634

>  <Mouse_Female_Canc> (634)
1

>  <SAL> (634)
1

>  <Rat_Male_Canc> (634)
1

>  <TD50_Rat> (634)
NP

>  <TD50_Mouse> (634)
NP

>  <Rat_Female_Canc> (634)
1

>  <Canc> (634)
1

>  <MolWeight> (634)
Unspecified 

>  <Mouse_Male_Canc> (634)
1

>  <Mouse_Male_NTP> (634)
ND

>  <ChemName> (634)
Guar gum

>  <Rat_Male_NTP> (634)
ND

>  <Reference> (634)
NTP229

>  <Formula> (634)
Unspecified 

>  <SMILES> (634)
Unspecified 

>  <Rat_Female_NTP> (634)
ND

>  <CAS> (634)
9000-30-0

>  <Mouse_Female_NTP> (634)
ND

>  <Synonyms> (634)
Burtonite v-7-e; cyamopsis gum; decorpa; Guaran; Guarem; guar flour; Guar gum (cyamopsis tetragonolobus); gum cyamopsis; gum guar; jaguar gum a-20-d; jaguar no.124; jaguar plus; regonal; supercol u.

$$$$
635
 

  0  0  0  0  0  0  0  0  0  0999 V2000
M  END
>  <Substance ID> (635)
635

>  <Mouse_Female_Canc> (635)
1

>  <SAL> (635)
ND

>  <Rat_Male_Canc> (635)
1

>  <TD50_Rat> (635)
NP

>  <TD50_Mouse> (635)
NP

>  <Rat_Female_Canc> (635)
1

>  <Canc> (635)
1

>  <MolWeight> (635)
Unspecified 

>  <Mouse_Male_Canc> (635)
1

>  <Mouse_Male_NTP> (635)
ND

>  <ChemName> (635)
Agar

>  <Rat_Male_NTP> (635)
ND

>  <Reference> (635)
NTP230

>  <Formula> (635)
Unspecified 

>  <SMILES> (635)
Unspecified 

>  <Rat_Female_NTP> (635)
ND

>  <CAS> (635)
9002-18-0

>  <Mouse_Female_NTP> (635)
ND

>  <Synonyms> (635)
Agal agal gum; Agar agar; agar-agar gum; Agar Agar, gum agar; Agar gum; AGAR, POWDER; Aloe wood gum; bengal; bengal isinglass; ceylon; ceylon isinglass; chinese isinglass; Gelidium amansii kutz. gum; Gelidium spp. gum; gelose; japan agar; japan isinglass; layor carang; macassar gum; Polysaccharide complex.

$$$$
636
 

 21 21  0  0  0  0  0  0  0  0999 V2000
    3.7887  -47.4885   -0.0169 C   0  0  0  0  0  0  0  0  0  0  0  0
    4.1291  -48.7771    0.0016 C   0  0  0  0  0  0  0  0  0  0  0  0
    6.4864  -48.2221    0.0143 C   0  0  0  0  0  0  0  0  0  0  0  0
    6.1114  -46.8163   -0.0052 C   0  0  0  0  0  0  0  0  0  0  0  0
    5.5440  -49.1599    0.0190 C   0  0  0  0  0  0  0  0  0  0  0  0
    4.8296  -46.4533   -0.0191 C   0  0  0  0  0  0  0  0  0  0  0  0
    5.9347  -50.6065    0.0421 C   0  0  0  0  0  0  0  0  0  0  0  0
    4.4476  -45.0866   -0.0342 N   0  0  0  0  0  0  0  0  0  0  0  0
    5.3707  -44.0028   -0.0082 C   0  0  0  0  0  0  0  0  0  0  0  0
    4.8724  -42.6649   -0.0323 N   0  0  0  0  0  0  0  0  0  0  0  0
    6.5933  -44.1822    0.0386 O   0  0  0  0  0  0  0  0  0  0  0  0
    2.8237  -47.2267   -0.0292 H   0  0  0  0  0  0  0  0  0  0  0  0
    3.4198  -49.4820    0.0037 H   0  0  0  0  0  0  0  0  0  0  0  0
    7.4518  -48.4826    0.0243 H   0  0  0  0  0  0  0  0  0  0  0  0
    6.8239  -46.1146   -0.0083 H   0  0  0  0  0  0  0  0  0  0  0  0
    6.9317  -50.6828    0.0517 H   0  0  0  0  0  0  0  0  0  0  0  0
    5.5738  -51.0628   -0.7712 H   0  0  0  0  0  0  0  0  0  0  0  0
    5.5598  -51.0404    0.8614 H   0  0  0  0  0  0  0  0  0  0  0  0
    3.4715  -44.8718   -0.0649 H   0  0  0  0  0  0  0  0  0  0  0  0
    5.5090  -41.8938   -0.0145 H   0  0  0  0  0  0  0  0  0  0  0  0
    3.8869  -42.4989   -0.0669 H   0  0  0  0  0  0  0  0  0  0  0  0
  1  2  2  0  0  0  0
  3  4  1  0  0  0  0
  1  6  1  0  0  0  0
  2  5  1  0  0  0  0
  5  3  2  0  0  0  0
  4  6  2  0  0  0  0
  5  7  1  0  0  0  0
  6  8  1  0  0  0  0
  8  9  1  0  0  0  0
  9 10  1  0  0  0  0
  9 11  2  0  0  0  0
  1 12  1  0  0  0  0
  2 13  1  0  0  0  0
  3 14  1  0  0  0  0
  4 15  1  0  0  0  0
  7 16  1  0  0  0  0
  7 17  1  0  0  0  0
  7 18  1  0  0  0  0
  8 19  1  0  0  0  0
 10 20  1  0  0  0  0
 10 21  1  0  0  0  0
M  END
>  <Substance ID> (636)
636

>  <Mouse_Female_Canc> (636)
1

>  <SAL> (636)
1

>  <Rat_Male_Canc> (636)
1

>  <TD50_Rat> (636)
NP

>  <TD50_Mouse> (636)
206

>  <Rat_Female_Canc> (636)
1

>  <Canc> (636)
3

>  <MolWeight> (636)
150.18

>  <Mouse_Male_Canc> (636)
3

>  <Mouse_Male_NTP> (636)
ND

>  <ChemName> (636)
p-Tolylurea

>  <Rat_Male_NTP> (636)
ND

>  <Reference> (636)
CPDB

>  <Formula> (636)
C8H10N2O

>  <SMILES> (636)
NC(=O)NC1=CC=C(C=C1)C

>  <Rat_Female_NTP> (636)
ND

>  <CAS> (636)
622-51-5

>  <Mouse_Female_NTP> (636)
ND

>  <Synonyms> (636)
1(4-tolyl)urea.

$$$$
637
 

 17 17  0  0  0  0  0  0  0  0999 V2000
    3.1874  -57.2634   -0.0008 C   0  0  0  0  0  0  0  0  0  0  0  0
    3.1881  -58.5946    0.0000 C   0  0  0  0  0  0  0  0  0  0  0  0
    5.6076  -58.6596   -0.0008 C   0  0  0  0  0  0  0  0  0  0  0  0
    5.6075  -57.1962   -0.0000 C   0  0  0  0  0  0  0  0  0  0  0  0
    4.4549  -59.3258   -0.0012 C   0  0  0  0  0  0  0  0  0  0  0  0
    4.4544  -56.5306   -0.0000 C   0  0  0  0  0  0  0  0  0  0  0  0
    4.4540  -55.1395    0.0009 O   0  0  0  0  0  0  0  0  0  0  0  0
    6.8162  -56.4976   -0.0000 N   0  0  0  0  0  0  0  0  0  0  0  0
    4.4561  -60.7214    0.0002 N   0  3  0  0  0  0  0  0  0  0  0  0
    3.3093  -61.3840    0.0005 O   0  5  0  0  0  0  0  0  0  0  0  0
    5.4745  -61.3078    0.0004 O   0  0  0  0  0  0  0  0  0  0  0  0
    2.3210  -56.7639   -0.0020 H   0  0  0  0  0  0  0  0  0  0  0  0
    2.3223  -59.0950    0.0015 H   0  0  0  0  0  0  0  0  0  0  0  0
    6.4738  -59.1594   -0.0011 H   0  0  0  0  0  0  0  0  0  0  0  0
    5.3965  -54.8054    0.0014 H   0  0  0  0  0  0  0  0  0  0  0  0
    6.8158  -55.4976    0.0006 H   0  0  0  0  0  0  0  0  0  0  0  0
    7.6825  -56.9972   -0.0006 H   0  0  0  0  0  0  0  0  0  0  0  0
  1  2  2  0  0  0  0
  3  4  1  0  0  0  0
  1  6  1  0  0  0  0
  2  5  1  0  0  0  0
  5  3  2  0  0  0  0
  4  6  2  0  0  0  0
  6  7  1  0  0  0  0
  4  8  1  0  0  0  0
  5  9  1  0  0  0  0
  9 10  1  0  0  0  0
  9 11  2  0  0  0  0
  1 12  1  0  0  0  0
  2 13  1  0  0  0  0
  3 14  1  0  0  0  0
  7 15  1  0  0  0  0
  8 16  1  0  0  0  0
  8 17  1  0  0  0  0
M  END
>  <Substance ID> (637)
637

>  <Mouse_Female_Canc> (637)
1

>  <SAL> (637)
3

>  <Rat_Male_Canc> (637)
3

>  <TD50_Rat> (637)
839

>  <TD50_Mouse> (637)
NP

>  <Rat_Female_Canc> (637)
1

>  <Canc> (637)
3

>  <MolWeight> (637)
154.13

>  <Mouse_Male_Canc> (637)
1

>  <Mouse_Male_NTP> (637)
NE

>  <ChemName> (637)
2-Amino-4-nitrophenol

>  <Rat_Male_NTP> (637)
SE

>  <Reference> (637)
NTP339

>  <Formula> (637)
C6H6N2O3

>  <SMILES> (637)
O=[N+](C1=CC(=C(C=C1)O)N)[O-]

>  <Rat_Female_NTP> (637)
NE

>  <CAS> (637)
99-57-0

>  <Mouse_Female_NTP> (637)
NE

>  <Synonyms> (637)
2-hydroxy-5-nitroaniline; 3-amino-4-hydroxynitrobenzene; p-nitro-o-aminophenol; C.I. 76530; ursol 4gl.

$$$$
638
 

 72 72  0  0  0  0  0  0  0  0999 V2000
    1.6720  -68.5276   -0.0003 C   0  0  0  0  0  0  0  0  0  0  0  0
    1.6810  -69.8593    0.0001 C   0  0  0  0  0  0  0  0  0  0  0  0
    4.1024  -69.9084   -0.0001 C   0  0  0  0  0  0  0  0  0  0  0  0
    4.0922  -68.4446   -0.0000 C   0  0  0  0  0  0  0  0  0  0  0  0
    2.9534  -70.5821   -0.0003 C   0  0  0  0  0  0  0  0  0  0  0  0
    2.9343  -67.7871   -0.0002 C   0  0  0  0  0  0  0  0  0  0  0  0
    2.9240  -66.2861   -0.0007 C   0  0  0  0  0  0  0  0  0  0  0  0
    5.4076  -70.6503   -0.0005 C   0  0  0  0  0  0  0  0  0  0  0  0
    0.8026  -68.0335   -0.0008 H   0  0  0  0  0  0  0  0  0  0  0  0
    0.8185  -70.3653    0.0007 H   0  0  0  0  0  0  0  0  0  0  0  0
    4.9547  -67.9386    0.0002 H   0  0  0  0  0  0  0  0  0  0  0  0
    2.9603  -71.5820   -0.0007 H   0  0  0  0  0  0  0  0  0  0  0  0
    3.8643  -65.9458   -0.0005 H   0  0  0  0  0  0  0  0  0  0  0  0
    2.4502  -65.9553    0.8154 H   0  0  0  0  0  0  0  0  0  0  0  0
    2.4507  -65.9558   -0.8174 H   0  0  0  0  0  0  0  0  0  0  0  0
    5.2320  -71.6347   -0.0005 H   0  0  0  0  0  0  0  0  0  0  0  0
    5.9309  -70.4055    0.8158 H   0  0  0  0  0  0  0  0  0  0  0  0
    5.9305  -70.4055   -0.8170 H   0  0  0  0  0  0  0  0  0  0  0  0
    6.6673  -68.3686    0.0006 C   0  0  0  0  0  0  0  0  0  0  0  0
    6.6673  -69.7005    0.0004 C   0  0  0  0  0  0  0  0  0  0  0  0
    9.0894  -69.7662    0.0001 C   0  0  0  0  0  0  0  0  0  0  0  0
    9.0889  -68.3021   -0.0001 C   0  0  0  0  0  0  0  0  0  0  0  0
    7.9359  -70.4322    0.0004 C   0  0  0  0  0  0  0  0  0  0  0  0
    7.9353  -67.6365    0.0001 C   0  0  0  0  0  0  0  0  0  0  0  0
    7.9350  -66.1360   -0.0006 C   0  0  0  0  0  0  0  0  0  0  0  0
    7.9361  -71.9326    0.0007 C   0  0  0  0  0  0  0  0  0  0  0  0
    5.8012  -67.8686    0.0010 H   0  0  0  0  0  0  0  0  0  0  0  0
    5.8014  -70.2007    0.0003 H   0  0  0  0  0  0  0  0  0  0  0  0
    9.9555  -70.2660    0.0000 H   0  0  0  0  0  0  0  0  0  0  0  0
    9.9548  -67.8018   -0.0005 H   0  0  0  0  0  0  0  0  0  0  0  0
    8.8776  -65.8020   -0.0008 H   0  0  0  0  0  0  0  0  0  0  0  0
    7.4638  -65.8019    0.8158 H   0  0  0  0  0  0  0  0  0  0  0  0
    7.4636  -65.8027   -0.8170 H   0  0  0  0  0  0  0  0  0  0  0  0
    8.8788  -72.2663    0.0006 H   0  0  0  0  0  0  0  0  0  0  0  0
    7.4648  -72.2666   -0.8156 H   0  0  0  0  0  0  0  0  0  0  0  0
    7.4650  -72.2663    0.8172 H   0  0  0  0  0  0  0  0  0  0  0  0
   11.6783  -68.8963   -0.0004 C   0  0  0  0  0  0  0  0  0  0  0  0
   11.6776  -70.2281    0.0001 C   0  0  0  0  0  0  0  0  0  0  0  0
   14.0993  -70.2960   -0.0001 C   0  0  0  0  0  0  0  0  0  0  0  0
   14.1012  -68.8312    0.0001 C   0  0  0  0  0  0  0  0  0  0  0  0
   12.9454  -70.9611    0.0001 C   0  0  0  0  0  0  0  0  0  0  0  0
   12.9474  -68.1639   -0.0001 C   0  0  0  0  0  0  0  0  0  0  0  0
   12.9446  -66.6613   -0.0002 C   0  0  0  0  0  0  0  0  0  0  0  0
   15.4051  -68.0847    0.0001 C   0  0  0  0  0  0  0  0  0  0  0  0
   10.8124  -68.3960   -0.0011 H   0  0  0  0  0  0  0  0  0  0  0  0
   10.8113  -70.7277    0.0005 H   0  0  0  0  0  0  0  0  0  0  0  0
   14.9648  -70.7968   -0.0004 H   0  0  0  0  0  0  0  0  0  0  0  0
   12.9447  -71.9611    0.0002 H   0  0  0  0  0  0  0  0  0  0  0  0
   13.8866  -66.3257    0.0001 H   0  0  0  0  0  0  0  0  0  0  0  0
   12.4724  -66.3283    0.8160 H   0  0  0  0  0  0  0  0  0  0  0  0
   12.4730  -66.3285   -0.8168 H   0  0  0  0  0  0  0  0  0  0  0  0
   15.2264  -67.1008    0.0003 H   0  0  0  0  0  0  0  0  0  0  0  0
   15.9288  -68.3277   -0.8164 H   0  0  0  0  0  0  0  0  0  0  0  0
   15.9290  -68.3279    0.8164 H   0  0  0  0  0  0  0  0  0  0  0  0
   17.1332  -69.7763   -0.0012 C   0  0  0  0  0  0  0  0  0  0  0  0
   17.4614  -71.0668   -0.0014 C   0  0  0  0  0  0  0  0  0  0  0  0
   19.8250  -70.5361   -0.0003 C   0  0  0  0  0  0  0  0  0  0  0  0
   19.4655  -69.1194    0.0011 C   0  0  0  0  0  0  0  0  0  0  0  0
   18.8707  -71.4647   -0.0011 C   0  0  0  0  0  0  0  0  0  0  0  0
   18.1837  -68.7549    0.0009 C   0  0  0  0  0  0  0  0  0  0  0  0
   17.8142  -67.2992    0.0025 C   0  0  0  0  0  0  0  0  0  0  0  0
   19.0927  -66.4383   -0.0021 C   0  0  0  0  0  0  0  0  0  0  0  0
   16.1708  -69.5045   -0.0026 H   0  0  0  0  0  0  0  0  0  0  0  0
   16.7451  -71.7646   -0.0017 H   0  0  0  0  0  0  0  0  0  0  0  0
   20.7874  -70.8079   -0.0006 H   0  0  0  0  0  0  0  0  0  0  0  0
   20.1826  -68.4224    0.0021 H   0  0  0  0  0  0  0  0  0  0  0  0
   19.1165  -72.4341   -0.0014 H   0  0  0  0  0  0  0  0  0  0  0  0
   17.2720  -67.0931   -0.8121 H   0  0  0  0  0  0  0  0  0  0  0  0
   17.2781  -67.0934    0.8212 H   0  0  0  0  0  0  0  0  0  0  0  0
   18.8431  -65.4699   -0.0010 H   0  0  0  0  0  0  0  0  0  0  0  0
   19.6298  -66.6426   -0.8205 H   0  0  0  0  0  0  0  0  0  0  0  0
   19.6359  -66.6429    0.8123 H   0  0  0  0  0  0  0  0  0  0  0  0
  1  2  2  0  0  0  0
  3  4  1  0  0  0  0
  1  6  1  0  0  0  0
  2  5  1  0  0  0  0
  5  3  2  0  0  0  0
  4  6  2  0  0  0  0
  6  7  1  0  0  0  0
  3  8  1  0  0  0  0
  1  9  1  0  0  0  0
  2 10  1  0  0  0  0
  4 11  1  0  0  0  0
  5 12  1  0  0  0  0
  7 13  1  0  0  0  0
  7 14  1  0  0  0  0
  7 15  1  0  0  0  0
  8 16  1  0  0  0  0
  8 17  1  0  0  0  0
  8 18  1  0  0  0  0
 19 20  2  0  0  0  0
 21 22  1  0  0  0  0
 19 24  1  0  0  0  0
 20 23  1  0  0  0  0
 23 21  2  0  0  0  0
 22 24  2  0  0  0  0
 24 25  1  0  0  0  0
 23 26  1  0  0  0  0
 19 27  1  0  0  0  0
 20 28  1  0  0  0  0
 21 29  1  0  0  0  0
 22 30  1  0  0  0  0
 25 31  1  0  0  0  0
 25 32  1  0  0  0  0
 25 33  1  0  0  0  0
 26 34  1  0  0  0  0
 26 35  1  0  0  0  0
 26 36  1  0  0  0  0
 37 38  2  0  0  0  0
 39 40  1  0  0  0  0
 37 42  1  0  0  0  0
 38 41  1  0  0  0  0
 41 39  2  0  0  0  0
 40 42  2  0  0  0  0
 42 43  1  0  0  0  0
 40 44  1  0  0  0  0
 37 45  1  0  0  0  0
 38 46  1  0  0  0  0
 39 47  1  0  0  0  0
 41 48  1  0  0  0  0
 43 49  1  0  0  0  0
 43 50  1  0  0  0  0
 43 51  1  0  0  0  0
 44 52  1  0  0  0  0
 44 53  1  0  0  0  0
 44 54  1  0  0  0  0
 55 56  2  0  0  0  0
 57 58  1  0  0  0  0
 55 60  1  0  0  0  0
 56 59  1  0  0  0  0
 59 57  2  0  0  0  0
 58 60  2  0  0  0  0
 60 61  1  0  0  0  0
 61 62  1  0  0  0  0
 55 63  1  0  0  0  0
 56 64  1  0  0  0  0
 57 65  1  0  0  0  0
 58 66  1  0  0  0  0
 59 67  1  0  0  0  0
 61 68  1  0  0  0  0
 61 69  1  0  0  0  0
 62 70  1  0  0  0  0
 62 71  1  0  0  0  0
 62 72  1  0  0  0  0
M  END
>  <Substance ID> (638)
638

>  <Mouse_Female_Canc> (638)
1

>  <SAL> (638)
1

>  <Rat_Male_Canc> (638)
1

>  <TD50_Rat> (638)
NP

>  <TD50_Mouse> (638)
NP

>  <Rat_Female_Canc> (638)
1

>  <Canc> (638)
1

>  <MolWeight> (638)
106.17

>  <Mouse_Male_Canc> (638)
1

>  <Mouse_Male_NTP> (638)
NE

>  <ChemName> (638)
Xylenes (mixed)

>  <Rat_Male_NTP> (638)
NE

>  <Reference> (638)
NTP327

>  <Formula> (638)
C8H10 

>  <SMILES> (638)
c1(ccccc1)CC.c1cccc(c1C)C.c1cc(ccc1C)C.c1ccc(cc1C)C

>  <Rat_Female_NTP> (638)
NE

>  <CAS> (638)
1330-20-7

>  <Mouse_Female_NTP> (638)
NE

>  <Synonyms> (638)
o-,m-,p-Xylene; m & p-xylene; m-,p-,o-Xylene; Dimethylbenzene; Dimethylbenzenes; Dimethylbenzene (mixed isomers); except p-xylene, mixed or all isomers; Socal aquatic solvent 3501; Total xylenes; Xylene; Xylene (o-,m-,p-); Xylene (o-, m-, p-isomers); xylenes; Xylenes; Xylenes (o-, m-, p-isomers);  Xylenes mixed isomers; Xylene (mixed); Xylene (mixed isomers); xylene, mixed or all isomers, except p-; Xylene mixture; Xylene mixture (m-xylene, o-xylene, p-xylene); Xylene mixture (60% m-xylene, 9% o-xylene, 14% p-xylene, 17% ethylbenzene); Xylene, (total); Xylol.

$$$$
639
 

 21 20  0  0  0  0  0  0  0  0999 V2000
    5.7945    0.0531   -0.1782 P   0  3  0  0  0  0  0  0  0 48  0  0
    4.0635    0.6219   -0.1862 C   0  0  0  0  0  0  0  0  0 49  0  0
    6.9041    1.5007   -0.1794 C   0  0  0  0  0  0  0  0  0 50  0  0
    6.0382   -0.6777   -1.8605 C   0  0  0  0  0  0  0  0  0 51  0  0
    6.0378   -0.6777    1.5028 C   0  0  0  0  0  0  0  0  0 52  0  0
    3.1427   -0.4594   -0.2081 O   0  0  0  0  0  0  0  0  0 53  0  0
    8.2608    1.0771   -0.1800 O   0  0  0  0  0  0  0  0  0 54  0  0
    5.8596    0.4125   -2.7882 O   0  0  0  0  0  0  0  0  0 55  0  0
    5.8600    0.4126    2.4294 O   0  0  0  0  0  0  0  0  0 56  0  0
    3.9038    1.2300   -1.0961 H   0  0  0  0  0  0  0  0  0 57  0  0
    3.8994    1.2193    0.7315 H   0  0  0  0  0  0  0  0  0 58  0  0
    6.7056    2.1007    0.7280 H   0  0  0  0  0  0  0  0  0 59  0  0
    6.7054    2.1002   -1.0873 H   0  0  0  0  0  0  0  0  0 60  0  0
    5.2631   -1.4100   -2.1858 H   0  0  0  0  0  0  0  0  0 61  0  0
    7.0538   -1.0915   -2.0731 H   0  0  0  0  0  0  0  0  0 62  0  0
    7.0537   -1.0914    1.7137 H   0  0  0  0  0  0  0  0  0 63  0  0
    5.2627   -1.4096    1.8272 H   0  0  0  0  0  0  0  0  0 64  0  0
    3.3329   -0.9773    0.5535 H   0  0  0  0  0  0  0  0  0 65  0  0
    8.7431    1.8812   -0.1794 H   0  0  0  0  0  0  0  0  0 66  0  0
    5.9591    0.0691   -3.6571 H   0  0  0  0  0  0  0  0  0 67  0  0
    5.9572    0.0695    3.2986 H   0  0  0  0  0  0  0  0  0 68  0  0
  1  2  1  0  0  0  0
  1  3  1  0  0  0  0
  1  4  1  6  0  0  0
  1  5  1  1  0  0  0
  2  6  1  0  0  0  0
  2 10  1  6  0  0  0
  2 11  1  1  0  0  0
  3  7  1  0  0  0  0
  3 12  1  1  0  0  0
  3 13  1  6  0  0  0
  4  8  1  6  0  0  0
  4 14  1  0  0  0  0
  4 15  1  0  0  0  0
  5  9  1  1  0  0  0
  5 16  1  0  0  0  0
  5 17  1  0  0  0  0
  6 18  1  1  0  0  0
  7 19  1  0  0  0  0
  8 20  1  6  0  0  0
  9 21  1  1  0  0  0
M  END
>  <Substance ID> (639)
639

>  <Mouse_Female_Canc> (639)
1

>  <SAL> (639)
1

>  <Rat_Male_Canc> (639)
1

>  <TD50_Rat> (639)
NP

>  <TD50_Mouse> (639)
NP

>  <Rat_Female_Canc> (639)
1

>  <Canc> (639)
1

>  <MolWeight> (639)
190.61

>  <Mouse_Male_Canc> (639)
1

>  <Mouse_Male_NTP> (639)
NE

>  <ChemName> (639)
Tetrakis(hydroxymethyl)phosphonium chloride

>  <Rat_Male_NTP> (639)
NE

>  <Reference> (639)
NTP296

>  <Formula> (639)
C4H12O4P+.Cl-

>  <SMILES> (639)
[Cl-].[P+](CO)(CO)(CO)CO

>  <Rat_Female_NTP> (639)
NE

>  <CAS> (639)
124-64-1

>  <Mouse_Female_NTP> (639)
NE

>  <Synonyms> (639)
Tetramethylolphosphonium chloride; THPC.

$$$$
640
 

 20 20  0  0  0  0  0  0  0  0999 V2000
    5.4658  -89.3454    0.0825 C   0  0  0  0  0  0  0  0  0  0  0  0
    5.5045  -90.6706    0.1959 C   0  0  0  0  0  0  0  0  0  0  0  0
    7.9263  -90.6862    0.0715 C   0  0  0  0  0  0  0  0  0  0  0  0
    7.8772  -89.2220   -0.0529 C   0  0  0  0  0  0  0  0  0  0  0  0
    6.7840  -91.3765    0.1891 C   0  0  0  0  0  0  0  0  0  0  0  0
    6.7059  -88.5875   -0.0505 C   0  0  0  0  0  0  0  0  0  0  0  0
    6.7787  -92.7652    0.3061 O   0  0  0  0  0  0  0  0  0  0  0  0
    6.6451  -86.7270   -0.2316 As  0  0  0  0  0  0  0  0  0  0  0  0
    8.0442  -86.1634   -1.2120 O   0  0  0  0  0  0  0  0  0  0  0  0
    5.2371  -86.2820   -0.8681 O   0  0  0  0  0  0  0  0  0  0  0  0
    6.7823  -85.9860    1.4029 O   0  0  0  0  0  0  0  0  0  0  0  0
    9.1842  -91.3285    0.0581 N   0  3  0  0  0  0  0  0  0  0  0  0
    9.2828  -92.6465    0.1362 O   0  5  0  0  0  0  0  0  0  0  0  0
   10.1634  -90.6828   -0.0282 O   0  0  0  0  0  0  0  0  0  0  0  0
    4.5868  -88.8687    0.0885 H   0  0  0  0  0  0  0  0  0  0  0  0
    4.6528  -91.1867    0.2862 H   0  0  0  0  0  0  0  0  0  0  0  0
    8.7261  -88.7005   -0.1396 H   0  0  0  0  0  0  0  0  0  0  0  0
    7.7188  -93.1054    0.2862 H   0  0  0  0  0  0  0  0  0  0  0  0
    8.0069  -85.1685   -1.3057 H   0  0  0  0  0  0  0  0  0  0  0  0
    6.7512  -84.9899    1.3214 H   0  0  0  0  0  0  0  0  0  0  0  0
  1  2  2  0  0  0  0
  3  4  1  0  0  0  0
  1  6  1  0  0  0  0
  2  5  1  0  0  0  0
  5  3  2  0  0  0  0
  4  6  2  0  0  0  0
  5  7  1  0  0  0  0
  6  8  1  0  0  0  0
  8  9  1  0  0  0  0
  8 10  2  0  0  0  0
  8 11  1  0  0  0  0
  3 12  1  0  0  0  0
 12 13  1  0  0  0  0
 12 14  2  0  0  0  0
  1 15  1  0  0  0  0
  2 16  1  0  0  0  0
  4 17  1  0  0  0  0
  7 18  1  0  0  0  0
  9 19  1  0  0  0  0
 11 20  1  0  0  0  0
M  END
>  <Substance ID> (640)
640

>  <Mouse_Female_Canc> (640)
1

>  <SAL> (640)
1

>  <Rat_Male_Canc> (640)
2

>  <TD50_Rat> (640)
NP

>  <TD50_Mouse> (640)
NP

>  <Rat_Female_Canc> (640)
1

>  <Canc> (640)
2

>  <MolWeight> (640)
263.04

>  <Mouse_Male_Canc> (640)
1

>  <Mouse_Male_NTP> (640)
NE

>  <ChemName> (640)
Roxarsone

>  <Rat_Male_NTP> (640)
EE

>  <Reference> (640)
NTP345

>  <Formula> (640)
C6H6NO6As

>  <SMILES> (640)
Oc1ccc(cc1N(=O)(=O))[As](O)(O)=O

>  <Rat_Female_NTP> (640)
NE

>  <CAS> (640)
121-19-7

>  <Mouse_Female_NTP> (640)
NE

>  <Synonyms> (640)
2-nitro-1-hydroxybenzene-4-arsonic acid; 3n4hpa; 3-nitro-4-hydroxybenzenearsonic acid; 3-Nitro-4-hydroxyphenylarsonic acid; 4-hydroxy-3-nitrobenzenearsonic acid; 4-hydroxy-3-nitrophenyl arsonic acid; aklomix-3; nitro acid 100 per cent; nitrophenoloarsonic acid; ren o-sal; ristat.

$$$$
641
 

 14 14  0  0  0  0  0  0  0  0999 V2000
   33.7305   -4.3195   -0.0002 C   0  0  0  0  0  0  0  0  0  0  0  0
   33.7238   -5.6511   -0.0003 C   0  0  0  0  0  0  0  0  0  0  0  0
   36.1446   -5.7278    0.0008 C   0  0  0  0  0  0  0  0  0  0  0  0
   36.1514   -4.2647    0.0003 C   0  0  0  0  0  0  0  0  0  0  0  0
   34.9879   -6.3873    0.0006 C   0  0  0  0  0  0  0  0  0  0  0  0
   35.0014   -3.5933    0.0000 C   0  0  0  0  0  0  0  0  0  0  0  0
   34.9798   -8.1154    0.0004 Cl  0  0  0  0  0  0  0  0  0  0  0  0
   32.2377   -3.4483   -0.0001 Cl  0  0  0  0  0  0  0  0  0  0  0  0
   35.0084   -2.1969    0.0001 N   0  0  0  0  0  0  0  0  0  0  0  0
   37.6520   -3.4078    0.0006 Cl  0  0  0  0  0  0  0  0  0  0  0  0
   32.8556   -6.1472   -0.0011 H   0  0  0  0  0  0  0  0  0  0  0  0
   37.0081   -6.2322    0.0012 H   0  0  0  0  0  0  0  0  0  0  0  0
   35.8769   -1.7013    0.0002 H   0  0  0  0  0  0  0  0  0  0  0  0
   34.1449   -1.6926   -0.0000 H   0  0  0  0  0  0  0  0  0  0  0  0
  1  2  2  0  0  0  0
  3  4  1  0  0  0  0
  1  6  1  0  0  0  0
  2  5  1  0  0  0  0
  5  3  2  0  0  0  0
  4  6  2  0  0  0  0
  5  7  1  0  0  0  0
  1  8  1  0  0  0  0
  6  9  1  0  0  0  0
  4 10  1  0  0  0  0
  2 11  1  0  0  0  0
  3 12  1  0  0  0  0
  9 13  1  0  0  0  0
  9 14  1  0  0  0  0
M  END
>  <Substance ID> (641)
641

>  <Mouse_Female_Canc> (641)
1

>  <SAL> (641)
1

>  <Rat_Male_Canc> (641)
1

>  <TD50_Rat> (641)
NP

>  <TD50_Mouse> (641)
259

>  <Rat_Female_Canc> (641)
ND

>  <Canc> (641)
3

>  <MolWeight> (641)
196.46

>  <Mouse_Male_Canc> (641)
3

>  <Mouse_Male_NTP> (641)
ND

>  <ChemName> (641)
2,4,6-Trichloroaniline

>  <Rat_Male_NTP> (641)
ND

>  <Reference> (641)
CPDB

>  <Formula> (641)
C6H4Cl3N

>  <SMILES> (641)
NC1=C(C=C(C=C1Cl)Cl)Cl

>  <Rat_Female_NTP> (641)
ND

>  <CAS> (641)
634-93-5

>  <Mouse_Female_NTP> (641)
ND

>  <Synonyms> (641)
2,4,6-trichlorobenzenamine; sym-trichloroaniline.

$$$$
642
 

 17 17  0  0  0  0  0  0  0  0999 V2000
   35.9888  -16.8182    0.0000 C   0  0  0  0  0  0  0  0  0  0  0  0
   35.9794  -18.1500   -0.0004 C   0  0  0  0  0  0  0  0  0  0  0  0
   38.4003  -18.2326    0.0007 C   0  0  0  0  0  0  0  0  0  0  0  0
   38.4103  -16.7690    0.0000 C   0  0  0  0  0  0  0  0  0  0  0  0
   37.2424  -18.8904    0.0005 C   0  0  0  0  0  0  0  0  0  0  0  0
   37.2617  -16.0950    0.0001 C   0  0  0  0  0  0  0  0  0  0  0  0
   39.7150  -16.0279    0.0002 C   0  0  0  0  0  0  0  0  0  0  0  0
   37.2328  -20.2859    0.0011 N   0  0  0  0  0  0  0  0  0  0  0  0
   35.1263  -16.3121    0.0003 H   0  0  0  0  0  0  0  0  0  0  0  0
   35.1099  -18.6441   -0.0014 H   0  0  0  0  0  0  0  0  0  0  0  0
   39.2628  -18.7385    0.0012 H   0  0  0  0  0  0  0  0  0  0  0  0
   37.2688  -15.0950    0.0003 H   0  0  0  0  0  0  0  0  0  0  0  0
   39.5397  -15.0434   -0.0003 H   0  0  0  0  0  0  0  0  0  0  0  0
   40.2383  -16.2732   -0.8159 H   0  0  0  0  0  0  0  0  0  0  0  0
   40.2378  -16.2725    0.8169 H   0  0  0  0  0  0  0  0  0  0  0  0
   38.0954  -20.7918    0.0018 H   0  0  0  0  0  0  0  0  0  0  0  0
   36.3634  -20.7800    0.0009 H   0  0  0  0  0  0  0  0  0  0  0  0
  1  2  2  0  0  0  0
  3  4  1  0  0  0  0
  1  6  1  0  0  0  0
  2  5  1  0  0  0  0
  5  3  2  0  0  0  0
  4  6  2  0  0  0  0
  4  7  1  0  0  0  0
  5  8  1  0  0  0  0
  1  9  1  0  0  0  0
  2 10  1  0  0  0  0
  3 11  1  0  0  0  0
  6 12  1  0  0  0  0
  7 13  1  0  0  0  0
  7 14  1  0  0  0  0
  7 15  1  0  0  0  0
  8 16  1  0  0  0  0
  8 17  1  0  0  0  0
M  END
>  <Substance ID> (642)
642

>  <Mouse_Female_Canc> (642)
1

>  <SAL> (642)
1

>  <Rat_Male_Canc> (642)
1

>  <TD50_Rat> (642)
NP

>  <TD50_Mouse> (642)
1440

>  <Rat_Female_Canc> (642)
ND

>  <Canc> (642)
3

>  <MolWeight> (642)
107.15

>  <Mouse_Male_Canc> (642)
3

>  <Mouse_Male_NTP> (642)
ND

>  <ChemName> (642)
m-Toluidine hydrochloride

>  <Rat_Male_NTP> (642)
ND

>  <Reference> (642)
CPDB

>  <Formula> (642)
C7H9N

>  <SMILES> (642)
C1=C(C=CC=C1N)C

>  <Rat_Female_NTP> (642)
ND

>  <CAS> (642)
638-03-9

>  <Mouse_Female_NTP> (642)
ND

>  <Synonyms> (642)
m-aminotoluene hydrochloride.

$$$$
643
 

  8  7  0  0  0  0  0  0  0  0999 V2000
   37.1166  -27.4180   -0.0002 C   0  0  0  0  0  0  0  0  0  0  0  0
   38.3419  -26.4851    0.0004 C   0  0  0  0  0  0  0  0  0  0  0  0
   39.8202  -27.4530    0.0002 Cl  0  0  0  0  0  0  0  0  0  0  0  0
   36.2800  -26.8702   -0.0001 H   0  0  0  0  0  0  0  0  0  0  0  0
   37.1364  -27.9956    0.8159 H   0  0  0  0  0  0  0  0  0  0  0  0
   37.1367  -27.9948   -0.8169 H   0  0  0  0  0  0  0  0  0  0  0  0
   38.3215  -25.9080   -0.8160 H   0  0  0  0  0  0  0  0  0  0  0  0
   38.3213  -25.9087    0.8173 H   0  0  0  0  0  0  0  0  0  0  0  0
  1  2  1  0  0  0  0
  2  3  1  0  0  0  0
  1  4  1  0  0  0  0
  1  5  1  0  0  0  0
  1  6  1  0  0  0  0
  2  7  1  0  0  0  0
  2  8  1  0  0  0  0
M  END
>  <Substance ID> (643)
643

>  <Mouse_Female_Canc> (643)
3

>  <SAL> (643)
3

>  <Rat_Male_Canc> (643)
2

>  <TD50_Rat> (643)
NP

>  <TD50_Mouse> (643)
1810

>  <Rat_Female_Canc> (643)
2

>  <Canc> (643)
3

>  <MolWeight> (643)
64.51

>  <Mouse_Male_Canc> (643)
ND

>  <Mouse_Male_NTP> (643)
ND

>  <ChemName> (643)
Chloroethane

>  <Rat_Male_NTP> (643)
EE

>  <Reference> (643)
NTP346

>  <Formula> (643)
C2H5Cl

>  <SMILES> (643)
CCCl

>  <Rat_Female_NTP> (643)
EE

>  <CAS> (643)
75-00-3

>  <Mouse_Female_NTP> (643)
CE

>  <Synonyms> (643)
Aethylis; aethylis chloridum; anodynon; chelen; chlorene; chlorethyl; chloridum; chloryl; chloryl anesthetic; cloretilo; dublofix; ether chloratus; ether hydrochloric; ether muriatic; ETHYL HLORIDE (CHLOROETHANE; Ethyl Chloride; hydrochloric ether; kelene; monochloroethane; Muriatic Ether; narcotile.

$$$$
644
 

 20 20  0  0  0  0  0  0  0  0999 V2000
   36.5063  -37.0446    0.3226 C   0  0  0  0  0  0  0  0  0  0  0  0
   36.4310  -38.3695    0.4122 C   0  0  0  0  0  0  0  0  0  0  0  0
   38.8154  -38.5851    0.0894 C   0  0  0  0  0  0  0  0  0  0  0  0
   38.9138  -37.1203   -0.0120 C   0  0  0  0  0  0  0  0  0  0  0  0
   37.6392  -39.1756    0.2904 C   0  0  0  0  0  0  0  0  0  0  0  0
   37.7966  -36.3827    0.1016 C   0  0  0  0  0  0  0  0  0  0  0  0
   37.8139  -34.8883    0.0103 C   0  0  0  0  0  0  0  0  0  0  0  0
   40.5480  -36.4104   -0.2860 S   0  0  0  0  0  0  0  0  0  0  0  0
   41.5793  -36.8850    1.0305 N   0  0  0  0  0  0  0  0  0  0  0  0
   40.5630  -34.8984   -0.4083 O   0  0  0  0  0  0  0  0  0  0  0  0
   41.1222  -37.0166   -1.5515 O   0  0  0  0  0  0  0  0  0  0  0  0
   35.6754  -36.4945    0.4065 H   0  0  0  0  0  0  0  0  0  0  0  0
   35.5469  -38.8118    0.5630 H   0  0  0  0  0  0  0  0  0  0  0  0
   39.6411  -39.1431    0.0064 H   0  0  0  0  0  0  0  0  0  0  0  0
   37.5847  -40.1718    0.3578 H   0  0  0  0  0  0  0  0  0  0  0  0
   38.7511  -34.5739   -0.1403 H   0  0  0  0  0  0  0  0  0  0  0  0
   37.4646  -34.4977    0.8621 H   0  0  0  0  0  0  0  0  0  0  0  0
   37.2375  -34.5938   -0.7520 H   0  0  0  0  0  0  0  0  0  0  0  0
   42.4921  -36.4995    0.8952 H   0  0  0  0  0  0  0  0  0  0  0  0
   41.6409  -37.8826    1.0634 H   0  0  0  0  0  0  0  0  0  0  0  0
  1  2  2  0  0  0  0
  3  4  1  0  0  0  0
  1  6  1  0  0  0  0
  2  5  1  0  0  0  0
  5  3  2  0  0  0  0
  4  6  2  0  0  0  0
  6  7  1  0  0  0  0
  4  8  1  0  0  0  0
  8  9  1  0  0  0  0
  8 10  2  0  0  0  0
  8 11  2  0  0  0  0
  1 12  1  0  0  0  0
  2 13  1  0  0  0  0
  3 14  1  0  0  0  0
  5 15  1  0  0  0  0
  7 16  1  0  0  0  0
  7 17  1  0  0  0  0
  7 18  1  0  0  0  0
  9 19  1  0  0  0  0
  9 20  1  0  0  0  0
M  END
>  <Substance ID> (644)
644

>  <Mouse_Female_Canc> (644)
ND

>  <SAL> (644)
1

>  <Rat_Male_Canc> (644)
3

>  <TD50_Rat> (644)
3960

>  <TD50_Mouse> (644)
ND

>  <Rat_Female_Canc> (644)
3

>  <Canc> (644)
3

>  <MolWeight> (644)
171.21

>  <Mouse_Male_Canc> (644)
ND

>  <Mouse_Male_NTP> (644)
ND

>  <ChemName> (644)
o-Toluenesulfonamide

>  <Rat_Male_NTP> (644)
ND

>  <Reference> (644)
CPDB

>  <Formula> (644)
C7H9NO2S

>  <SMILES> (644)
CC1=C(C=CC=C1)S(=O)(=O)N

>  <Rat_Female_NTP> (644)
ND

>  <CAS> (644)
88-19-7

>  <Mouse_Female_NTP> (644)
ND

>  <Synonyms> (644)
o-Methylbenzenesulfonamide.

$$$$
645
 

  0  0  0  0  0  0  0  0  0  0999 V2000
M  END
>  <Substance ID> (645)
645

>  <Mouse_Female_Canc> (645)
1

>  <SAL> (645)
1

>  <Rat_Male_Canc> (645)
1

>  <TD50_Rat> (645)
NP

>  <TD50_Mouse> (645)
NP

>  <Rat_Female_Canc> (645)
1

>  <Canc> (645)
1

>  <MolWeight> (645)
Unspecified 

>  <Mouse_Male_Canc> (645)
1

>  <Mouse_Male_NTP> (645)
ND

>  <ChemName> (645)
Tara gum

>  <Rat_Male_NTP> (645)
ND

>  <Reference> (645)
NTP224

>  <Formula> (645)
Unspecified 

>  <SMILES> (645)
Unspecified 

>  <Rat_Female_NTP> (645)
ND

>  <CAS> (645)
39300-88-4

>  <Mouse_Female_NTP> (645)
ND

>  <Synonyms> (645)
gum tara.

$$$$
646
 

 36 38  0  0  0  0  0  0  0  0999 V2000
   38.2467  -53.7613   -0.0007 C   0  0  0  0  0  0  0  0  0  0  0  0
   41.0271  -53.3643   -0.0007 C   0  0  0  0  0  0  0  0  0  0  0  0
   40.1318  -52.2102    0.0007 C   0  0  0  0  0  0  0  0  0  0  0  0
   38.8112  -52.3873    0.0006 C   0  0  0  0  0  0  0  0  0  0  0  0
   31.8738  -53.7236    0.0002 C   0  0  0  0  0  0  0  0  0  0  0  0
   32.7109  -54.7605   -0.0042 C   0  0  0  0  0  0  0  0  0  0  0  0
   34.6572  -53.2947   -0.0025 C   0  0  0  0  0  0  0  0  0  0  0  0
   33.7187  -52.1478   -0.0022 C   0  0  0  0  0  0  0  0  0  0  0  0
   34.1693  -54.5352   -0.0042 C   0  0  0  0  0  0  0  0  0  0  0  0
   32.4035  -52.3611    0.0011 C   0  0  0  0  0  0  0  0  0  0  0  0
   30.3871  -53.9491    0.0040 C   0  0  0  0  0  0  0  0  0  0  0  0
   36.0578  -53.0793   -0.0008 N   0  0  0  0  0  0  0  0  0  0  0  0
   36.8445  -53.9988   -0.0011 N   0  0  0  0  0  0  0  0  0  0  0  0
   40.5192  -54.5939    0.0001 C   0  0  0  0  0  0  0  0  0  0  0  0
   39.0794  -54.7985    0.0003 C   0  0  0  0  0  0  0  0  0  0  0  0
   39.4058  -57.1876    0.0015 C   0  0  0  0  0  0  0  0  0  0  0  0
   40.8707  -56.9816   -0.0000 C   0  0  0  0  0  0  0  0  0  0  0  0
   38.5617  -56.1550    0.0017 C   0  0  0  0  0  0  0  0  0  0  0  0
   41.3960  -55.7554   -0.0004 C   0  0  0  0  0  0  0  0  0  0  0  0
   37.9875  -51.2797    0.0036 O   0  0  0  0  0  0  0  0  0  0  0  0
   34.1906  -50.8220    0.0010 N   0  3  0  0  0  0  0  0  0  0  0  0
   35.4776  -50.5585    0.0020 O   0  5  0  0  0  0  0  0  0  0  0  0
   33.4208  -49.9315    0.0029 O   0  0  0  0  0  0  0  0  0  0  0  0
   42.0181  -53.2307   -0.0022 H   0  0  0  0  0  0  0  0  0  0  0  0
   40.5110  -51.2849    0.0017 H   0  0  0  0  0  0  0  0  0  0  0  0
   32.3501  -55.6932   -0.0075 H   0  0  0  0  0  0  0  0  0  0  0  0
   34.7940  -55.3161   -0.0055 H   0  0  0  0  0  0  0  0  0  0  0  0
   31.7744  -51.5838    0.0042 H   0  0  0  0  0  0  0  0  0  0  0  0
   29.9157  -53.0672    0.0071 H   0  0  0  0  0  0  0  0  0  0  0  0
   30.1300  -54.4667    0.8201 H   0  0  0  0  0  0  0  0  0  0  0  0
   30.1254  -54.4635   -0.8127 H   0  0  0  0  0  0  0  0  0  0  0  0
   39.0415  -58.1189    0.0024 H   0  0  0  0  0  0  0  0  0  0  0  0
   41.4781  -57.7759   -0.0008 H   0  0  0  0  0  0  0  0  0  0  0  0
   37.5745  -56.3147    0.0027 H   0  0  0  0  0  0  0  0  0  0  0  0
   42.3887  -55.6348   -0.0010 H   0  0  0  0  0  0  0  0  0  0  0  0
   38.5447  -50.4494    0.0040 H   0  0  0  0  0  0  0  0  0  0  0  0
  1 15  2  0  0  0  0
  2  3  1  0  0  0  0
  1  4  1  0  0  0  0
 14  2  2  0  0  0  0
  3  4  2  0  0  0  0
  5  6  2  0  0  0  0
  7  8  1  0  0  0  0
  5 10  1  0  0  0  0
  6  9  1  0  0  0  0
  9  7  2  0  0  0  0
  8 10  2  0  0  0  0
  5 11  1  0  0  0  0
  7 12  1  0  0  0  0
 12 13  2  0  0  0  0
 13  1  1  0  0  0  0
 14 15  1  0  0  0  0
 16 17  1  0  0  0  0
 14 19  1  0  0  0  0
 15 18  1  0  0  0  0
 18 16  2  0  0  0  0
 17 19  2  0  0  0  0
  4 20  1  0  0  0  0
  8 21  1  0  0  0  0
 21 22  1  0  0  0  0
 21 23  2  0  0  0  0
  2 24  1  0  0  0  0
  3 25  1  0  0  0  0
  6 26  1  0  0  0  0
  9 27  1  0  0  0  0
 10 28  1  0  0  0  0
 11 29  1  0  0  0  0
 11 30  1  0  0  0  0
 11 31  1  0  0  0  0
 16 32  1  0  0  0  0
 17 33  1  0  0  0  0
 18 34  1  0  0  0  0
 19 35  1  0  0  0  0
 20 36  1  0  0  0  0
M  END
>  <Substance ID> (646)
646

>  <Mouse_Female_Canc> (646)
1

>  <SAL> (646)
3

>  <Rat_Male_Canc> (646)
3

>  <TD50_Rat> (646)
1170

>  <TD50_Mouse> (646)
35500

>  <Rat_Female_Canc> (646)
3

>  <Canc> (646)
3

>  <MolWeight> (646)
307.31

>  <Mouse_Male_Canc> (646)
3

>  <Mouse_Male_NTP> (646)
SE

>  <ChemName> (646)
C.I. Pigment Red 3

>  <Rat_Male_NTP> (646)
SE

>  <Reference> (646)
NTP407

>  <Formula> (646)
C17H13N3O3

>  <SMILES> (646)
OC1=CC=C2C(=C1/N=N/C3=C(C=C(C=C3)C)[N+](=O)[O-])C=CC=C2

>  <Rat_Female_NTP> (646)
SE

>  <CAS> (646)
2425-85-6

>  <Mouse_Female_NTP> (646)
NE

>  <Synonyms> (646)
1-[(4-methyl-2-nitrophenyl)azo]-2-Naphthalenol; 1-(4-Methyl-2-nitrophenylazo)-2-naphthol; 2-Naphthalenol, 1-(4-Methyl-2-nitrophenylazo)-2-naphthol; accosperse toluidine red xl; adc toluidine red b; calcotone toluidine red yp; carnelio helio red; chromotex red j; C.I. 12120; C.P. toluidine toner A-2989; C.P. toluidine toner deep X-1865; C.P. toluidine toner RT-6101; dainachi permanent red 4 r; d and c red no. 35; deep fastona red; duplex toluidine red l 20-3140; eljon fast scarlet rn; enialit light red rl; fastona red b; fast red r; graphtol red A-4RL; hansa red b; hansa scarlet rb; helio fast red rl; helio red rl; hispalit fast scarlet rn; independence red; irgalite fast red P4R; isol fast red hb; isol toluidine red rnb; kromon helio fast red; lake red 4R; lithol fast scarlet rn; lutetia fast red 3R; Toluidine red; toluidine toner; monolite fast scarlet ca; no. 2 forthfast scarlet; oralith red P4R; permanent red 4R; pigment red 3; pigment scarlet; polymo red fgn; recolite fast red rbl; sanyo scarlet; scarlet pigment rn; segnale light red b; siegle red 1; silogomma red rll; silosol red rbn; siloton red brll; symuler fast scarlet 4R; syton fast scarlet rb; tertropigment red hab; versal scarlet prnl; vulcafor scarlet a.

$$$$
647
  

  4  3  0  0  0  0  0  0  0  0999 V2000
   -0.0216    1.7393    0.0116 Mo  0  0  0  0  0  0  0  0  0  1  0  0
    0.0021   -0.0041    0.0020 O   0  0  0  0  0  0  0  0  0  2  0  0
    1.4763    2.6315    0.0021 O   0  0  0  0  0  0  0  0  0  3  0  0
   -1.5432    2.5904    0.0234 O   0  0  0  0  0  0  0  0  0  4  0  0
  1  2  2  0  0  0  0
  1  3  2  0  0  0  0
  1  4  2  0  0  0  0
M  END
>  <Substance ID> (647)
647

>  <Mouse_Female_Canc> (647)
3

>  <SAL> (647)
1

>  <Rat_Male_Canc> (647)
2

>  <TD50_Rat> (647)
NP

>  <TD50_Mouse> (647)
ND

>  <Rat_Female_Canc> (647)
1

>  <Canc> (647)
3

>  <MolWeight> (647)
143.94

>  <Mouse_Male_Canc> (647)
3

>  <Mouse_Male_NTP> (647)
SE

>  <ChemName> (647)
Molybdenum trioxide

>  <Rat_Male_NTP> (647)
EE

>  <Reference> (647)
NTP462

>  <Formula> (647)
MoO3 

>  <SMILES> (647)
O=[Mo](=O)=O

>  <Rat_Female_NTP> (647)
NE

>  <CAS> (647)
1313-27-5

>  <Mouse_Female_NTP> (647)
SE

>  <Synonyms> (647)
mo 1202t; molybdic acid anhydride; Molybdic anhydride; Molybdic trioxide; molybdena; molybdenum anhydride; Molybdenum oxide; molybdenum peroxide; MOLYBDENUM TRIOXIDE, 99.998%; Molybdenum (VI) oxide; natural molybdite.

$$$$
648
 

 43 45  0  0  0  0  0  0  0  0999 V2000
   36.3404  -75.2068    0.0897 N   0  0  0  0  0  0  0  0  0  0  0  0
   37.0429  -76.4692    0.1410 C   0  0  0  0  0  0  0  0  0  0  0  0
   38.5001  -76.2665    0.3916 C   0  0  0  0  0  0  0  0  0  0  0  0
   38.6336  -74.7922    0.2078 C   0  0  0  0  0  0  0  0  0  0  0  0
   37.3568  -74.1500    0.1151 N   0  0  0  0  0  0  0  0  0  0  0  0
   31.9971  -75.1699   -0.0953 C   0  0  0  0  0  0  0  0  0  0  0  0
   32.6702  -76.3162   -0.0593 C   0  0  0  0  0  0  0  0  0  0  0  0
   34.8333  -75.1727    0.0180 C   0  0  0  0  0  0  0  0  0  0  0  0
   34.0523  -73.9448   -0.0199 C   0  0  0  0  0  0  0  0  0  0  0  0
   34.1449  -76.3136    0.0007 C   0  0  0  0  0  0  0  0  0  0  0  0
   32.7253  -73.9293   -0.0742 C   0  0  0  0  0  0  0  0  0  0  0  0
   37.2841  -72.6434    0.0329 C   0  0  0  0  0  0  0  0  0  0  0  0
   38.4140  -71.9337    0.0798 C   0  0  0  0  0  0  0  0  0  0  0  0
   37.2603  -69.8102   -0.1031 C   0  0  0  0  0  0  0  0  0  0  0  0
   36.0276  -70.5550   -0.1558 C   0  0  0  0  0  0  0  0  0  0  0  0
   38.4082  -70.4683    0.0082 C   0  0  0  0  0  0  0  0  0  0  0  0
   36.0527  -71.8817   -0.0934 C   0  0  0  0  0  0  0  0  0  0  0  0
   39.7264  -74.2185    0.1251 O   0  0  0  0  0  0  0  0  0  0  0  0
   39.5349  -77.1894   -0.3082 C   0  0  0  0  0  0  0  0  0  0  0  0
   40.9488  -76.8204    0.2049 C   0  0  0  0  0  0  0  0  0  0  0  0
   42.0417  -77.6144   -0.5169 C   0  0  0  0  0  0  0  0  0  0  0  0
   43.4129  -77.1414    0.0082 C   0  0  0  0  0  0  0  0  0  0  0  0
   36.5358  -77.5875    0.0013 O   0  0  0  0  0  0  0  0  0  0  0  0
   38.7705  -76.5832    1.3007 H   0  0  0  0  0  0  0  0  0  0  0  0
   30.9979  -75.1703   -0.1364 H   0  0  0  0  0  0  0  0  0  0  0  0
   32.1746  -77.1846   -0.0728 H   0  0  0  0  0  0  0  0  0  0  0  0
   34.5382  -73.0710   -0.0043 H   0  0  0  0  0  0  0  0  0  0  0  0
   34.6365  -77.1839    0.0288 H   0  0  0  0  0  0  0  0  0  0  0  0
   32.2342  -73.0586   -0.1004 H   0  0  0  0  0  0  0  0  0  0  0  0
   39.2872  -72.4135    0.1660 H   0  0  0  0  0  0  0  0  0  0  0  0
   37.2513  -68.8113   -0.1496 H   0  0  0  0  0  0  0  0  0  0  0  0
   35.1549  -70.0739   -0.2392 H   0  0  0  0  0  0  0  0  0  0  0  0
   39.2709  -69.9639    0.0433 H   0  0  0  0  0  0  0  0  0  0  0  0
   35.1858  -72.3784   -0.1352 H   0  0  0  0  0  0  0  0  0  0  0  0
   39.3360  -78.1449   -0.0905 H   0  0  0  0  0  0  0  0  0  0  0  0
   39.4902  -77.0562   -1.2982 H   0  0  0  0  0  0  0  0  0  0  0  0
   41.1038  -75.8444    0.0523 H   0  0  0  0  0  0  0  0  0  0  0  0
   40.9992  -77.0173    1.1841 H   0  0  0  0  0  0  0  0  0  0  0  0
   41.9278  -78.5906   -0.3324 H   0  0  0  0  0  0  0  0  0  0  0  0
   41.9827  -77.4518   -1.5018 H   0  0  0  0  0  0  0  0  0  0  0  0
   44.1403  -77.6498   -0.4527 H   0  0  0  0  0  0  0  0  0  0  0  0
   43.4668  -77.3030    0.9936 H   0  0  0  0  0  0  0  0  0  0  0  0
   43.5218  -76.1645   -0.1755 H   0  0  0  0  0  0  0  0  0  0  0  0
  1  2  1  0  0  0  0
  3  4  1  0  0  0  0
  4  5  1  0  0  0  0
  5  1  1  0  0  0  0
  2  3  1  0  0  0  0
  6  7  2  0  0  0  0
  8  9  1  0  0  0  0
  6 11  1  0  0  0  0
  7 10  1  0  0  0  0
 10  8  2  0  0  0  0
  9 11  2  0  0  0  0
  8  1  1  0  0  0  0
  5 12  1  0  0  0  0
 12 13  2  0  0  0  0
 14 15  1  0  0  0  0
 12 17  1  0  0  0  0
 13 16  1  0  0  0  0
 16 14  2  0  0  0  0
 15 17  2  0  0  0  0
  4 18  2  0  0  0  0
  3 19  1  0  0  0  0
 19 20  1  0  0  0  0
 20 21  1  0  0  0  0
 21 22  1  0  0  0  0
  2 23  2  0  0  0  0
  3 24  1  0  0  0  0
  6 25  1  0  0  0  0
  7 26  1  0  0  0  0
  9 27  1  0  0  0  0
 10 28  1  0  0  0  0
 11 29  1  0  0  0  0
 13 30  1  0  0  0  0
 14 31  1  0  0  0  0
 15 32  1  0  0  0  0
 16 33  1  0  0  0  0
 17 34  1  0  0  0  0
 19 35  1  0  0  0  0
 19 36  1  0  0  0  0
 20 37  1  0  0  0  0
 20 38  1  0  0  0  0
 21 39  1  0  0  0  0
 21 40  1  0  0  0  0
 22 41  1  0  0  0  0
 22 42  1  0  0  0  0
 22 43  1  0  0  0  0
M  END
>  <Substance ID> (648)
648

>  <Mouse_Female_Canc> (648)
1

>  <SAL> (648)
1

>  <Rat_Male_Canc> (648)
2

>  <TD50_Rat> (648)
1160

>  <TD50_Mouse> (648)
353

>  <Rat_Female_Canc> (648)
3

>  <Canc> (648)
3

>  <MolWeight> (648)
308.38

>  <Mouse_Male_Canc> (648)
3

>  <Mouse_Male_NTP> (648)
SE

>  <ChemName> (648)
Phenylbutazone

>  <Rat_Male_NTP> (648)
EE

>  <Reference> (648)
NTP367

>  <Formula> (648)
C19H20N2O2

>  <SMILES> (648)
O=C1N(C2=CC=CC=C2)N(C3=CC=CC=C3)C(=O)C1CCCC

>  <Rat_Female_NTP> (648)
SE

>  <CAS> (648)
50-33-9

>  <Mouse_Female_NTP> (648)
NE

>  <Synonyms> (648)
1,2-diphenyl-3,5-dioxo-4-butylpyrazolidine; 1,2-diphenyl-3,5-dioxo-4-n-butylpyrazoline; diphebuzol; diphenylbutazone; bizolin 200; B.T.Z.; busone; butadion; butadiona; butacompren; butacote; butagesic; butalgina; butalidon; butaluy; butapirazol; butapyrazole; butarecbon; butartril; butartrina; Butatab; butazina; Butazolidin; Butazone; butazona; BUTE; butidiona; butiwas-simple; butone; Butoz; butylpyrin; buvetzone; Buzon; Betazed; chembutazone; DA-192; ecobutazone; elmedal; equi bute; Equiphen; eributazone; esteve; FBZ; febuzina; fenartil; fenibutasan; fenibutazona; fenibutol; fenilbutazona; fenilbutine; fenilidina; fenotone; fenylbutazon; g 13,871; intrabutazone; Kadol; lingel; mephabutazone; nadazone; phenbutazol; phenopyrine; reudox; reumazin; schemergin; tazone; Uzone; VAC-10; wescozone; zolaphen; 1,2-diphenyl-4-butyl-3,5-dioxopyrazolidine; 1,2-diphenyl-4-butyl-3,5-pyrazolidinedione; 3,5-dioxo-1,2-diphenyl-4-n-butylpyrazolidine; 3,5-dioxo-4-butyl-1-diphenyl-pyrazolidine; 4-Butyl-1,2-diphenyl-3,5-dioxo pyrazolidine; 4-butyl-1,2-diphenyl-3,5-pyrazolidinedione; 4-butyl-1,2-diphenylpyrazolidine-3,5-dione; alindor; alkabutazona; alqoverin; anerval; anpuzone; antadol; anuspiramin; artrizin; artrizone; artropan; Azdid; azobutyl; azolid; benzone; digibutina; diossidone; diozol.

$$$$
649
 

  9  9  0  0  0  0  0  0  0  0999 V2000
   41.9517  -82.6961    0.0002 O   0  0  0  0  0  0  0  0  0  0  0  0
   40.8381  -83.5790    0.0002 C   0  0  0  0  0  0  0  0  0  0  0  0
   41.2282  -84.8479   -0.0001 C   0  0  0  0  0  0  0  0  0  0  0  0
   42.6532  -84.8552   -0.0002 C   0  0  0  0  0  0  0  0  0  0  0  0
   43.0562  -83.5903   -0.0001 C   0  0  0  0  0  0  0  0  0  0  0  0
   39.8831  -83.2824    0.0003 H   0  0  0  0  0  0  0  0  0  0  0  0
   40.6319  -85.6507   -0.0002 H   0  0  0  0  0  0  0  0  0  0  0  0
   43.2412  -85.6641   -0.0004 H   0  0  0  0  0  0  0  0  0  0  0  0
   44.0142  -83.3036   -0.0001 H   0  0  0  0  0  0  0  0  0  0  0  0
  1  2  1  0  0  0  0
  2  3  2  0  0  0  0
  3  4  1  0  0  0  0
  4  5  2  0  0  0  0
  5  1  1  0  0  0  0
  2  6  1  0  0  0  0
  3  7  1  0  0  0  0
  4  8  1  0  0  0  0
  5  9  1  0  0  0  0
M  END
>  <Substance ID> (649)
649

>  <Mouse_Female_Canc> (649)
3

>  <SAL> (649)
1

>  <Rat_Male_Canc> (649)
3

>  <TD50_Rat> (649)
0.396

>  <TD50_Mouse> (649)
2.72

>  <Rat_Female_Canc> (649)
3

>  <Canc> (649)
3

>  <MolWeight> (649)
68.08

>  <Mouse_Male_Canc> (649)
3

>  <Mouse_Male_NTP> (649)
CE

>  <ChemName> (649)
Furan

>  <Rat_Male_NTP> (649)
CE

>  <Reference> (649)
NTP402

>  <Formula> (649)
C4H4O

>  <SMILES> (649)
C1=COC=C1

>  <Rat_Female_NTP> (649)
CE

>  <CAS> (649)
110-00-9

>  <Mouse_Female_NTP> (649)
CE

>  <Synonyms> (649)
1,4-epoxy-1,3-butadiene; Axole; Divinylene oxide; Furan, stabilized with 0.025 to 0.04% BHT; furfuran; Oxacyclopentadiene; Oxole; Tetrole.

$$$$
650
 

  6  5  0  0  0  0  0  0  0  0999 V2000
   35.3700  -90.9715   -0.0003 C   0  0  0  0  0  0  0  0  0  0  0  0
   37.6292  -91.4777   -0.0008 F   0  0  0  0  0  0  0  0  0  0  0  0
   36.6398  -90.5720   -0.0009 C   0  0  0  0  0  0  0  0  0  0  0  0
   34.3812  -90.0652    0.0002 F   0  0  0  0  0  0  0  0  0  0  0  0
   35.0798  -92.2815   -0.0002 F   0  0  0  0  0  0  0  0  0  0  0  0
   36.9313  -89.2616   -0.0000 F   0  0  0  0  0  0  0  0  0  0  0  0
  2  3  1  0  0  0  0
  3  1  2  0  0  0  0
  1  4  1  0  0  0  0
  1  5  1  0  0  0  0
  3  6  1  0  0  0  0
M  END
>  <Substance ID> (650)
650

>  <Mouse_Female_Canc> (650)
3

>  <SAL> (650)
ND

>  <Rat_Male_Canc> (650)
3

>  <TD50_Rat> (650)
ND

>  <TD50_Mouse> (650)
ND

>  <Rat_Female_Canc> (650)
3

>  <Canc> (650)
3

>  <MolWeight> (650)
100.02

>  <Mouse_Male_Canc> (650)
3

>  <Mouse_Male_NTP> (650)
CE

>  <ChemName> (650)
Tetrafluoroethylene

>  <Rat_Male_NTP> (650)
CE

>  <Reference> (650)
NTP450

>  <Formula> (650)
C2F4 

>  <SMILES> (650)
FC(F)=C(F)F

>  <Rat_Female_NTP> (650)
CE

>  <CAS> (650)
116-14-3

>  <Mouse_Female_NTP> (650)
CE

>  <Synonyms> (650)
Fluoroplast 4; perfluoroethene; perfluoroethylene; Tetrafluorethene; TFE.

$$$$
651
 

 15 16  0  0  0  0  0  0  0  0999 V2000
    5.5835   -5.3762   -0.0008 O   0  0  0  0  0  0  0  0  0  0  0  0
    6.5143   -4.2613   -0.0006 C   0  0  0  0  0  0  0  0  0  0  0  0
    5.8820   -3.0832   -0.0001 C   0  0  0  0  0  0  0  0  0  0  0  0
    4.3527   -4.6930    0.0002 C   0  0  0  0  0  0  0  0  0  0  0  0
    4.5066   -3.3956    0.0006 C   0  0  0  0  0  0  0  0  0  0  0  0
    2.1592   -3.0014   -0.0001 C   0  0  0  0  0  0  0  0  0  0  0  0
    1.9742   -4.4814   -0.0003 C   0  0  0  0  0  0  0  0  0  0  0  0
    3.3877   -2.4772    0.0009 C   0  0  0  0  0  0  0  0  0  0  0  0
    3.0341   -5.2961    0.0004 C   0  0  0  0  0  0  0  0  0  0  0  0
    7.5092   -4.3626   -0.0009 H   0  0  0  0  0  0  0  0  0  0  0  0
    6.2965   -2.1732   -0.0001 H   0  0  0  0  0  0  0  0  0  0  0  0
    1.3606   -2.3995   -0.0007 H   0  0  0  0  0  0  0  0  0  0  0  0
    1.0514   -4.8668   -0.0010 H   0  0  0  0  0  0  0  0  0  0  0  0
    3.5292   -1.4873    0.0018 H   0  0  0  0  0  0  0  0  0  0  0  0
    2.9212   -6.2897    0.0010 H   0  0  0  0  0  0  0  0  0  0  0  0
  4  1  1  0  0  0  0
  1  2  1  0  0  0  0
  2  3  2  0  0  0  0
  5  3  1  0  0  0  0
  4  5  2  0  0  0  0
  6  7  1  0  0  0  0
  4  9  1  0  0  0  0
  5  8  1  0  0  0  0
  8  6  2  0  0  0  0
  7  9  2  0  0  0  0
  2 10  1  0  0  0  0
  3 11  1  0  0  0  0
  6 12  1  0  0  0  0
  7 13  1  0  0  0  0
  8 14  1  0  0  0  0
  9 15  1  0  0  0  0
M  END
>  <Substance ID> (651)
651

>  <Mouse_Female_Canc> (651)
3

>  <SAL> (651)
1

>  <Rat_Male_Canc> (651)
1

>  <TD50_Rat> (651)
424

>  <TD50_Mouse> (651)
25.1

>  <Rat_Female_Canc> (651)
3

>  <Canc> (651)
3

>  <MolWeight> (651)
118.13

>  <Mouse_Male_Canc> (651)
3

>  <Mouse_Male_NTP> (651)
CE

>  <ChemName> (651)
Benzofuran

>  <Rat_Male_NTP> (651)
NE

>  <Reference> (651)
NTP370

>  <Formula> (651)
C8H6O

>  <SMILES> (651)
C1=COC2=C1C=CC=C2

>  <Rat_Female_NTP> (651)
SE

>  <CAS> (651)
271-89-6

>  <Mouse_Female_NTP> (651)
CE

>  <Synonyms> (651)
1-oxindene; 2,3-Benzofuran; benzo[b]furan; benzofurfuran; Coumarone; Cumaron.

$$$$
652
 

 25 24  0  0  0  0  0  0  0  0999 V2000
    3.9737  -12.6021   -0.5502 N   0  0  0  0  0  0  0  0  0  0  0  0
    3.3864  -13.2112    0.6853 C   0  0  0  0  0  0  0  0  0  0  0  0
    2.7847  -14.6382    0.4648 C   0  0  0  0  0  0  0  0  0  0  0  0
    3.7909  -15.6039    0.1553 O   0  0  0  0  0  0  0  0  0  0  0  0
    5.1478  -13.3626   -1.1434 C   0  0  0  0  0  0  0  0  0  0  0  0
    6.3678  -13.5807   -0.2029 C   0  0  0  0  0  0  0  0  0  0  0  0
    7.3883  -14.2820   -0.9064 O   0  0  0  0  0  0  0  0  0  0  0  0
    4.2043  -11.1265   -0.3528 C   0  0  0  0  0  0  0  0  0  0  0  0
    5.0439  -10.7484    0.8976 C   0  0  0  0  0  0  0  0  0  0  0  0
    5.1944   -9.3337    0.9546 O   0  0  0  0  0  0  0  0  0  0  0  0
    4.1061  -13.2766    1.3765 H   0  0  0  0  0  0  0  0  0  0  0  0
    2.6588  -12.6107    1.0168 H   0  0  0  0  0  0  0  0  0  0  0  0
    2.3122  -14.9213    1.2995 H   0  0  0  0  0  0  0  0  0  0  0  0
    2.1317  -14.5994   -0.2915 H   0  0  0  0  0  0  0  0  0  0  0  0
    3.3651  -16.4988    0.0225 H   0  0  0  0  0  0  0  0  0  0  0  0
    4.8166  -14.2624   -1.4276 H   0  0  0  0  0  0  0  0  0  0  0  0
    5.4665  -12.8559   -1.9445 H   0  0  0  0  0  0  0  0  0  0  0  0
    6.7193  -12.6943    0.0983 H   0  0  0  0  0  0  0  0  0  0  0  0
    6.0839  -14.1151    0.5931 H   0  0  0  0  0  0  0  0  0  0  0  0
    8.1732  -14.4229   -0.3031 H   0  0  0  0  0  0  0  0  0  0  0  0
    4.6788  -10.7771   -1.1607 H   0  0  0  0  0  0  0  0  0  0  0  0
    3.3120  -10.6825   -0.2716 H   0  0  0  0  0  0  0  0  0  0  0  0
    4.5769  -11.0678    1.7221 H   0  0  0  0  0  0  0  0  0  0  0  0
    5.9450  -11.1776    0.8368 H   0  0  0  0  0  0  0  0  0  0  0  0
    5.7348   -9.0877    1.7592 H   0  0  0  0  0  0  0  0  0  0  0  0
  1  2  1  0  0  0  0
  2  3  1  0  0  0  0
  3  4  1  0  0  0  0
  1  5  1  0  0  0  0
  5  6  1  0  0  0  0
  6  7  1  0  0  0  0
  1  8  1  0  0  0  0
  8  9  1  0  0  0  0
  9 10  1  0  0  0  0
  2 11  1  0  0  0  0
  2 12  1  0  0  0  0
  3 13  1  0  0  0  0
  3 14  1  0  0  0  0
  4 15  1  0  0  0  0
  5 16  1  0  0  0  0
  5 17  1  0  0  0  0
  6 18  1  0  0  0  0
  6 19  1  0  0  0  0
  7 20  1  0  0  0  0
  8 21  1  0  0  0  0
  8 22  1  0  0  0  0
  9 23  1  0  0  0  0
  9 24  1  0  0  0  0
 10 25  1  0  0  0  0
M  END
>  <Substance ID> (652)
652

>  <Mouse_Female_Canc> (652)
3

>  <SAL> (652)
1

>  <Rat_Male_Canc> (652)
2

>  <TD50_Rat> (652)
NP

>  <TD50_Mouse> (652)
100

>  <Rat_Female_Canc> (652)
1

>  <Canc> (652)
3

>  <MolWeight> (652)
149.19

>  <Mouse_Male_Canc> (652)
3

>  <Mouse_Male_NTP> (652)
ND

>  <ChemName> (652)
Triethanolamine

>  <Rat_Male_NTP> (652)
EE

>  <Reference> (652)
CPDB & NTP449

>  <Formula> (652)
C6H15NO3

>  <SMILES> (652)
OCCN(CCO)CCO

>  <Rat_Female_NTP> (652)
NE

>  <CAS> (652)
102-71-6

>  <Mouse_Female_NTP> (652)
ND

>  <Synonyms> (652)
2,2',2-Nitrilotriethanol; 2,2',2''-nitrilotriethanol; 2,2',2''-trihydroxytriethylamine; Daltogen; Nitrilo-2,2',2''-Triethanol; Nitrilotris(ethanol); Sodium ISA; sterolamide; T-35; TEA; thiofaco t-35; tris(2-hydroxyethyl)amine; Triethylolamine; Tris(hydroxyethyl)amine; Trihydroxytriethylamine; Trolamine.

$$$$
653
  

 34 35  0  0  0  0  0  0  0  0999 V2000
    7.7412  -25.9859    0.0000 C   0  0  0  0  0  0  0  0  0  0  0  0
    8.4308  -27.1253   -0.0005 C   0  0  0  0  0  0  0  0  0  0  0  0
   10.5533  -25.9136    0.0005 C   0  0  0  0  0  0  0  0  0  0  0  0
    9.7647  -24.6861   -0.0012 C   0  0  0  0  0  0  0  0  0  0  0  0
    9.9174  -27.1146    0.0001 C   0  0  0  0  0  0  0  0  0  0  0  0
    8.4405  -24.7201   -0.0004 C   0  0  0  0  0  0  0  0  0  0  0  0
    3.4653  -25.8293   -0.0005 C   0  0  0  0  0  0  0  0  0  0  0  0
    4.0725  -27.0455    0.0005 C   0  0  0  0  0  0  0  0  0  0  0  0
    6.2749  -25.9683    0.0001 C   0  0  0  0  0  0  0  0  0  0  0  0
    5.6047  -24.6867   -0.0028 C   0  0  0  0  0  0  0  0  0  0  0  0
    5.5587  -27.0906    0.0020 C   0  0  0  0  0  0  0  0  0  0  0  0
    4.2812  -24.6201   -0.0021 C   0  0  0  0  0  0  0  0  0  0  0  0
    2.0762  -25.6326   -0.0013 N   0  0  0  0  0  0  0  0  0  0  0  0
    3.4098  -28.3367    0.0018 O   0  0  0  0  0  0  0  0  0  0  0  0
    1.9737  -28.3767    0.0007 C   0  0  0  0  0  0  0  0  0  0  0  0
   10.5501  -28.4216    0.0005 O   0  0  0  0  0  0  0  0  0  0  0  0
   11.9849  -28.4947    0.0018 C   0  0  0  0  0  0  0  0  0  0  0  0
   11.9471  -25.7490    0.0019 N   0  0  0  0  0  0  0  0  0  0  0  0
    7.9428  -27.9982   -0.0014 H   0  0  0  0  0  0  0  0  0  0  0  0
   10.2327  -23.8024   -0.0029 H   0  0  0  0  0  0  0  0  0  0  0  0
    7.9213  -23.8655   -0.0000 H   0  0  0  0  0  0  0  0  0  0  0  0
    6.1441  -23.8446   -0.0053 H   0  0  0  0  0  0  0  0  0  0  0  0
    6.0260  -27.9747    0.0045 H   0  0  0  0  0  0  0  0  0  0  0  0
    3.8342  -23.7255   -0.0027 H   0  0  0  0  0  0  0  0  0  0  0  0
    1.7025  -24.7050   -0.0021 H   0  0  0  0  0  0  0  0  0  0  0  0
    1.4597  -26.4199   -0.0011 H   0  0  0  0  0  0  0  0  0  0  0  0
    1.6663  -29.3283    0.0017 H   0  0  0  0  0  0  0  0  0  0  0  0
    1.6275  -27.9160   -0.8166 H   0  0  0  0  0  0  0  0  0  0  0  0
    1.6262  -27.9138    0.8162 H   0  0  0  0  0  0  0  0  0  0  0  0
   12.2704  -29.4530    0.0019 H   0  0  0  0  0  0  0  0  0  0  0  0
   12.3415  -28.0411    0.8187 H   0  0  0  0  0  0  0  0  0  0  0  0
   12.3430  -28.0408   -0.8141 H   0  0  0  0  0  0  0  0  0  0  0  0
   12.5452  -26.5504    0.0031 H   0  0  0  0  0  0  0  0  0  0  0  0
   12.3421  -24.8303    0.0018 H   0  0  0  0  0  0  0  0  0  0  0  0
  1  2  2  0  0  0  0
  3  4  1  0  0  0  0
  1  6  1  0  0  0  0
  2  5  1  0  0  0  0
  5  3  2  0  0  0  0
  4  6  2  0  0  0  0
  7  8  2  0  0  0  0
  9 10  1  0  0  0  0
  7 12  1  0  0  0  0
  8 11  1  0  0  0  0
 11  9  2  0  0  0  0
 10 12  2  0  0  0  0
  9  1  1  0  0  0  0
  7 13  1  0  0  0  0
  8 14  1  0  0  0  0
 14 15  1  0  0  0  0
  5 16  1  0  0  0  0
 16 17  1  0  0  0  0
  3 18  1  0  0  0  0
  2 19  1  0  0  0  0
  4 20  1  0  0  0  0
  6 21  1  0  0  0  0
 10 22  1  0  0  0  0
 11 23  1  0  0  0  0
 12 24  1  0  0  0  0
 13 25  1  0  0  0  0
 13 26  1  0  0  0  0
 15 27  1  0  0  0  0
 15 28  1  0  0  0  0
 15 29  1  0  0  0  0
 17 30  1  0  0  0  0
 17 31  1  0  0  0  0
 17 32  1  0  0  0  0
 18 33  1  0  0  0  0
 18 34  1  0  0  0  0
M  END
>  <Substance ID> (653)
653

>  <Mouse_Female_Canc> (653)
1

>  <SAL> (653)
3

>  <Rat_Male_Canc> (653)
3

>  <TD50_Rat> (653)
1.04

>  <TD50_Mouse> (653)
NP

>  <Rat_Female_Canc> (653)
3

>  <Canc> (653)
3

>  <MolWeight> (653)
317.21

>  <Mouse_Male_Canc> (653)
1

>  <Mouse_Male_NTP> (653)
ND

>  <ChemName> (653)
3,3'-Dimethoxybenzidine Dihydrochloride

>  <Rat_Male_NTP> (653)
CE

>  <Reference> (653)
CPDB & NTP372

>  <Formula> (653)
C14H16N2O2.2HCl

>  <SMILES> (653)
[Cl].NC1(=CC=C(C=C1OC)C2=CC=C(C(=C2)OC)N).[Cl]

>  <Rat_Female_NTP> (653)
CE

>  <CAS> (653)
20325-40-0

>  <Mouse_Female_NTP> (653)
ND

>  <Synonyms> (653)
ortho-Dianisidine dihydrochloride; 3,3'-dimethoxy-[1,1'-biphenyl]-4,4'-diamine, dihydrochloride; dianisidine dihydrochloride; ci disperse black 6 dihydrochloride.

$$$$
654
 

 82 87  0  0  0  0  0  0  0  0999 V2000
   29.3499  -35.5917    0.0510 C   0  0  0  0  0  0  0  0  0  0  0  0
   32.1411  -35.0793    0.0890 C   0  0  0  0  0  0  0  0  0  0  0  0
   31.1937  -33.9739    0.0989 C   0  0  0  0  0  0  0  0  0  0  0  0
   29.8803  -34.2038    0.0921 C   0  0  0  0  0  0  0  0  0  0  0  0
   22.7434  -35.4712   -0.0026 C   0  0  0  0  0  0  0  0  0  0  0  0
   23.5591  -36.5329    0.0192 C   0  0  0  0  0  0  0  0  0  0  0  0
   25.6120  -35.1352    0.0320 C   0  0  0  0  0  0  0  0  0  0  0  0
   24.7103  -33.9739    0.0098 C   0  0  0  0  0  0  0  0  0  0  0  0
   25.0566  -36.3527    0.0409 C   0  0  0  0  0  0  0  0  0  0  0  0
   23.3698  -34.1253   -0.0072 C   0  0  0  0  0  0  0  0  0  0  0  0
   18.3098  -35.9942    0.0211 C   0  0  0  0  0  0  0  0  0  0  0  0
   19.1504  -37.0396    0.0185 C   0  0  0  0  0  0  0  0  0  0  0  0
   21.1954  -35.6452   -0.0093 C   0  0  0  0  0  0  0  0  0  0  0  0
   20.2743  -34.4695   -0.0130 C   0  0  0  0  0  0  0  0  0  0  0  0
   20.6451  -36.8633    0.0009 C   0  0  0  0  0  0  0  0  0  0  0  0
   18.9308  -34.6162   -0.0002 C   0  0  0  0  0  0  0  0  0  0  0  0
   11.6914  -36.7549    0.2196 C   0  0  0  0  0  0  0  0  0  0  0  0
   12.7042  -37.5661    0.5552 C   0  0  0  0  0  0  0  0  0  0  0  0
   14.4634  -35.8924    0.0523 C   0  0  0  0  0  0  0  0  0  0  0  0
   13.3344  -34.9668   -0.2963 C   0  0  0  0  0  0  0  0  0  0  0  0
   14.1455  -37.1280    0.4491 C   0  0  0  0  0  0  0  0  0  0  0  0
   12.0473  -35.3762   -0.2404 C   0  0  0  0  0  0  0  0  0  0  0  0
    4.4683  -36.8490    0.3379 C   0  0  0  0  0  0  0  0  0  0  0  0
    5.2617  -37.9235    0.3089 C   0  0  0  0  0  0  0  0  0  0  0  0
    7.2654  -36.5513   -0.0107 C   0  0  0  0  0  0  0  0  0  0  0  0
    6.3706  -35.3736    0.0755 C   0  0  0  0  0  0  0  0  0  0  0  0
    6.7355  -37.7718    0.1187 C   0  0  0  0  0  0  0  0  0  0  0  0
    5.0536  -35.5166    0.2336 C   0  0  0  0  0  0  0  0  0  0  0  0
    2.9705  -37.0035    0.4667 C   0  0  0  0  0  0  0  0  0  0  0  0
    9.0271  -36.2699   -0.4290 S   0  0  0  0  0  0  0  0  0  0  0  0
   10.2749  -37.2598    0.3310 O   0  0  0  0  0  0  0  0  0  0  0  0
   15.8959  -35.4635   -0.0482 N   0  0  0  0  0  0  0  0  0  0  0  0
   16.8212  -36.2743    0.0619 N   0  0  0  0  0  0  0  0  0  0  0  0
   27.0914  -34.9039    0.0433 N   0  0  0  0  0  0  0  0  0  0  0  0
   27.9246  -35.8065    0.0604 N   0  0  0  0  0  0  0  0  0  0  0  0
   31.6971  -36.3306    0.0451 C   0  0  0  0  0  0  0  0  0  0  0  0
   30.2343  -36.6154    0.0301 C   0  0  0  0  0  0  0  0  0  0  0  0
   30.7836  -38.9935   -0.0545 C   0  0  0  0  0  0  0  0  0  0  0  0
   32.2361  -38.7081   -0.0082 C   0  0  0  0  0  0  0  0  0  0  0  0
   29.8339  -38.0456   -0.0522 C   0  0  0  0  0  0  0  0  0  0  0  0
   32.6681  -37.4482    0.0398 C   0  0  0  0  0  0  0  0  0  0  0  0
   29.0081  -33.1257    0.0967 O   0  0  0  0  0  0  0  0  0  0  0  0
   25.3061  -32.6030    0.0085 C   0  0  0  0  0  0  0  0  0  0  0  0
   18.0734  -33.3832    0.0030 C   0  0  0  0  0  0  0  0  0  0  0  0
    9.3216  -34.7912   -0.2916 O   0  0  0  0  0  0  0  0  0  0  0  0
    9.1205  -36.6409   -1.8953 O   0  0  0  0  0  0  0  0  0  0  0  0
   28.1423  -38.6354   -0.1669 S   0  0  0  0  0  0  0  0  0  0  0  0
   33.3939  -40.0935   -0.0438 S   0  0  0  0  0  0  0  0  0  0  0  0
   27.1700  -37.7147   -0.8526 O   0  0  0  0  0  0  0  0  0  0  0  0
   28.2173  -39.8773   -1.0266 O   0  0  0  0  0  0  0  0  0  0  0  0
   34.6709  -39.7120   -0.7681 O   0  0  0  0  0  0  0  0  0  0  0  0
   32.6883  -41.2449   -0.7318 O   0  0  0  0  0  0  0  0  0  0  0  0
   27.6108  -39.1142    1.3872 O   0  5  0  0  0  0  0  0  0  0  0  0
   33.7709  -40.5642    1.5482 O   0  5  0  0  0  0  0  0  0  0  0  0
   33.1240  -34.8971    0.1151 H   0  0  0  0  0  0  0  0  0  0  0  0
   31.5314  -33.0327    0.1110 H   0  0  0  0  0  0  0  0  0  0  0  0
   23.1715  -37.4548    0.0210 H   0  0  0  0  0  0  0  0  0  0  0  0
   25.6466  -37.1599    0.0624 H   0  0  0  0  0  0  0  0  0  0  0  0
   22.7857  -33.3137   -0.0232 H   0  0  0  0  0  0  0  0  0  0  0  0
   18.7721  -37.9652    0.0286 H   0  0  0  0  0  0  0  0  0  0  0  0
   20.6625  -33.5481   -0.0254 H   0  0  0  0  0  0  0  0  0  0  0  0
   21.2358  -37.6701   -0.0033 H   0  0  0  0  0  0  0  0  0  0  0  0
   12.4996  -38.4876    0.8852 H   0  0  0  0  0  0  0  0  0  0  0  0
   13.5385  -34.0285   -0.5755 H   0  0  0  0  0  0  0  0  0  0  0  0
   14.8739  -37.7732    0.6797 H   0  0  0  0  0  0  0  0  0  0  0  0
   11.3196  -34.7461   -0.5114 H   0  0  0  0  0  0  0  0  0  0  0  0
    4.8662  -38.8357    0.4154 H   0  0  0  0  0  0  0  0  0  0  0  0
    6.7609  -34.4549    0.0141 H   0  0  0  0  0  0  0  0  0  0  0  0
    7.3235  -38.5801    0.0882 H   0  0  0  0  0  0  0  0  0  0  0  0
    4.4662  -34.7086    0.2808 H   0  0  0  0  0  0  0  0  0  0  0  0
    2.5410  -36.1005    0.4715 H   0  0  0  0  0  0  0  0  0  0  0  0
    2.7562  -37.4786    1.3201 H   0  0  0  0  0  0  0  0  0  0  0  0
    2.6220  -37.5338   -0.3062 H   0  0  0  0  0  0  0  0  0  0  0  0
   30.4932  -39.9498   -0.0895 H   0  0  0  0  0  0  0  0  0  0  0  0
   33.6492  -37.2575    0.0722 H   0  0  0  0  0  0  0  0  0  0  0  0
   29.5308  -32.2737    0.1262 H   0  0  0  0  0  0  0  0  0  0  0  0
   24.5749  -31.9212   -0.0075 H   0  0  0  0  0  0  0  0  0  0  0  0
   25.8836  -32.4908   -0.8002 H   0  0  0  0  0  0  0  0  0  0  0  0
   25.8592  -32.4787    0.8324 H   0  0  0  0  0  0  0  0  0  0  0  0
   18.6566  -32.5711   -0.0130 H   0  0  0  0  0  0  0  0  0  0  0  0
   17.5088  -33.3714    0.8283 H   0  0  0  0  0  0  0  0  0  0  0  0
   17.4831  -33.3851   -0.8043 H   0  0  0  0  0  0  0  0  0  0  0  0
  1 37  2  0  0  0  0
  2  3  1  0  0  0  0
  1  4  1  0  0  0  0
 36  2  2  0  0  0  0
  3  4  2  0  0  0  0
  5  6  2  0  0  0  0
  7  8  1  0  0  0  0
  5 10  1  0  0  0  0
  6  9  1  0  0  0  0
  9  7  2  0  0  0  0
  8 10  2  0  0  0  0
 11 12  2  0  0  0  0
 13 14  1  0  0  0  0
 11 16  1  0  0  0  0
 12 15  1  0  0  0  0
 15 13  2  0  0  0  0
 14 16  2  0  0  0  0
 17 18  2  0  0  0  0
 19 20  1  0  0  0  0
 17 22  1  0  0  0  0
 18 21  1  0  0  0  0
 21 19  2  0  0  0  0
 20 22  2  0  0  0  0
 23 24  2  0  0  0  0
 25 26  1  0  0  0  0
 23 28  1  0  0  0  0
 24 27  1  0  0  0  0
 27 25  2  0  0  0  0
 26 28  2  0  0  0  0
 23 29  1  0  0  0  0
 25 30  1  0  0  0  0
 30 31  1  0  0  0  0
 31 17  1  0  0  0  0
 19 32  1  0  0  0  0
 32 33  2  0  0  0  0
 33 11  1  0  0  0  0
 13  5  1  0  0  0  0
  7 34  1  0  0  0  0
 34 35  2  0  0  0  0
 35  1  1  0  0  0  0
 36 37  1  0  0  0  0
 38 39  1  0  0  0  0
 36 41  1  0  0  0  0
 37 40  1  0  0  0  0
 40 38  2  0  0  0  0
 39 41  2  0  0  0  0
  4 42  1  0  0  0  0
  8 43  1  0  0  0  0
 16 44  1  0  0  0  0
 30 45  2  0  0  0  0
 30 46  2  0  0  0  0
 40 47  1  0  0  0  0
 39 48  1  0  0  0  0
 47 49  2  0  0  0  0
 47 50  2  0  0  0  0
 48 51  2  0  0  0  0
 48 52  2  0  0  0  0
 47 53  1  0  0  0  0
 48 54  1  0  0  0  0
  2 55  1  0  0  0  0
  3 56  1  0  0  0  0
  6 57  1  0  0  0  0
  9 58  1  0  0  0  0
 10 59  1  0  0  0  0
 12 60  1  0  0  0  0
 14 61  1  0  0  0  0
 15 62  1  0  0  0  0
 18 63  1  0  0  0  0
 20 64  1  0  0  0  0
 21 65  1  0  0  0  0
 22 66  1  0  0  0  0
 24 67  1  0  0  0  0
 26 68  1  0  0  0  0
 27 69  1  0  0  0  0
 28 70  1  0  0  0  0
 29 71  1  0  0  0  0
 29 72  1  0  0  0  0
 29 73  1  0  0  0  0
 38 74  1  0  0  0  0
 41 75  1  0  0  0  0
 42 76  1  0  0  0  0
 43 77  1  0  0  0  0
 43 78  1  0  0  0  0
 43 79  1  0  0  0  0
 44 80  1  0  0  0  0
 44 81  1  0  0  0  0
 44 82  1  0  0  0  0
M  END
>  <Substance ID> (654)
654

>  <Mouse_Female_Canc> (654)
ND

>  <SAL> (654)
3

>  <Rat_Male_Canc> (654)
3

>  <TD50_Rat> (654)
3.89

>  <TD50_Mouse> (654)
ND

>  <Rat_Female_Canc> (654)
3

>  <Canc> (654)
3

>  <MolWeight> (654)
830.82

>  <Mouse_Male_Canc> (654)
ND

>  <Mouse_Male_NTP> (654)
ND

>  <ChemName> (654)
C.I. Acid Red 114

>  <Rat_Male_NTP> (654)
CE

>  <Reference> (654)
NTP405

>  <Formula> (654)
C37H28N4O10S3Na2

>  <SMILES> (654)
[Na+].O=S(=O)(Oc5ccc(/N=N/c1ccc(cc1C)c4ccc(/N=N/c2c3c(ccc2O)cc(cc3S([O-])(=O)=O)S([O-])(=O)=O)c(c4)C)cc5)c6ccc(cc6)C.[Na+]

>  <Rat_Female_NTP> (654)
CE

>  <CAS> (654)
6459-94-5

>  <Mouse_Female_NTP> (654)
ND

>  <Synonyms> (654)
8-[[3,3'-dimethyl-4'-[[4-[[(4-methylphenyl)sulfonyl]oxy]phenyl]azo][1,1'-biphenyl]-4-yl]azo]-7-hydroxy-1,3-Naphthalenedisulfonic acid, disodium salt; acid leather red bg; Acid Red 114; benzyl red br; C.I. 23635; C.I. Acid Red 114, disodium salt; erionyl red rs; fenafor red pb; folan red b; kayanol milling red rs; leather fast red b; Midlon Red PRS; milling fast red b; milling red b; milling red bb; polar red rs; sella fast red rs; sulfonol red r; suminol milling red rs; supranol fast red gg; telon fast red gg; tertracid milling red b; vondamol fast red rs.

$$$$
655
 

 11 11  0  0  0  0  0  0  0  0999 V2000
    3.4429  -48.3505   -0.3957 O   0  0  0  0  0  0  0  0  0  0  0  0
    3.1588  -49.4657    0.4343 C   0  0  0  0  0  0  0  0  0  0  0  0
    4.4117  -49.4449   -0.4250 C   0  0  1  0  0  0  0  0  0  0  0  0
    5.5930  -48.9286    0.4168 C   0  0  0  0  0  0  0  0  0  0  0  0
    6.8026  -49.5460   -0.0299 O   0  0  0  0  0  0  0  0  0  0  0  0
    3.2315  -49.3819    1.4281 H   0  0  0  0  0  0  0  0  0  0  0  0
    2.4045  -50.0811    0.2054 H   0  0  0  0  0  0  0  0  0  0  0  0
    4.8312  -50.0685   -1.0847 H   0  0  0  0  0  0  0  0  0  0  0  0
    5.6673  -47.9367    0.3136 H   0  0  0  0  0  0  0  0  0  0  0  0
    5.4398  -49.1535    1.3791 H   0  0  0  0  0  0  0  0  0  0  0  0
    7.5700  -49.2108    0.5166 H   0  0  0  0  0  0  0  0  0  0  0  0
  2  1  1  0  0  0  0
  3  2  1  0  0  0  0
  1  3  1  0  0  0  0
  3  4  1  0  0  0  0
  4  5  1  0  0  0  0
  2  6  1  0  0  0  0
  2  7  1  0  0  0  0
  3  8  1  0  0  0  0
  4  9  1  0  0  0  0
  4 10  1  0  0  0  0
  5 11  1  0  0  0  0
M  END
>  <Substance ID> (655)
655

>  <Mouse_Female_Canc> (655)
3

>  <SAL> (655)
3

>  <Rat_Male_Canc> (655)
3

>  <TD50_Rat> (655)
4.28

>  <TD50_Mouse> (655)
34.7

>  <Rat_Female_Canc> (655)
3

>  <Canc> (655)
3

>  <MolWeight> (655)
74.08

>  <Mouse_Male_Canc> (655)
3

>  <Mouse_Male_NTP> (655)
CE

>  <ChemName> (655)
Glycidol

>  <Rat_Male_NTP> (655)
CE

>  <Reference> (655)
NTP374

>  <Formula> (655)
C3H6O2

>  <SMILES> (655)
OCC1CO1

>  <Rat_Female_NTP> (655)
CE

>  <CAS> (655)
556-52-5

>  <Mouse_Female_NTP> (655)
CE

>  <Synonyms> (655)
1,2-Epoxy-3-Hydroxy Propane; 2,3-Epoxy-1-propanol; 2,3-epoxypropanol; 2-hydroxymethyloxirane; 3-hydroxy-1,2-epoxypropane; 3-Hydroxypropylene oxide; allyl alcohol oxide; epihydrin alcohol; epoxypropyl alcohol; glycide; glycidyl alcohol; Oxiranemethanol; oxiranylmethanol; (RS)-3-Hydroxy-1,2-epoxypropane.

$$$$
656
 

 16 15  0  0  0  0  0  0  0  0999 V2000
    6.7282  -55.7976    0.0395 O   0  0  0  0  0  0  0  0  0  0  0  0
    5.6686  -56.2503   -0.1926 N   0  0  0  0  0  0  0  0  0  0  0  0
    4.5791  -55.6442    0.2517 O   0  0  0  0  0  0  0  0  0  0  0  0
    3.4253  -56.3809   -0.1564 C   0  0  0  0  0  0  0  0  0  0  0  0
    2.1598  -55.6746    0.3599 C   0  0  0  0  0  0  0  0  0  0  0  0
    0.9146  -56.4662   -0.0797 C   0  0  0  0  0  0  0  0  0  0  0  0
    2.0955  -54.2501   -0.2208 C   0  0  0  0  0  0  0  0  0  0  0  0
    3.3964  -56.4296   -1.1548 H   0  0  0  0  0  0  0  0  0  0  0  0
    3.4690  -57.3057    0.2217 H   0  0  0  0  0  0  0  0  0  0  0  0
    2.1879  -55.6265    1.3583 H   0  0  0  0  0  0  0  0  0  0  0  0
    0.0918  -56.0073    0.2557 H   0  0  0  0  0  0  0  0  0  0  0  0
    0.9569  -57.3914    0.2974 H   0  0  0  0  0  0  0  0  0  0  0  0
    0.8851  -56.5146   -1.0781 H   0  0  0  0  0  0  0  0  0  0  0  0
    1.2732  -53.7900    0.1141 H   0  0  0  0  0  0  0  0  0  0  0  0
    2.0669  -54.2977   -1.2193 H   0  0  0  0  0  0  0  0  0  0  0  0
    2.9043  -53.7362    0.0651 H   0  0  0  0  0  0  0  0  0  0  0  0
  1  2  2  0  0  0  0
  2  3  1  0  0  0  0
  3  4  1  0  0  0  0
  5  4  1  0  0  0  0
  5  6  1  0  0  0  0
  5  7  1  0  0  0  0
  4  8  1  0  0  0  0
  4  9  1  0  0  0  0
  5 10  1  0  0  0  0
  6 11  1  0  0  0  0
  6 12  1  0  0  0  0
  6 13  1  0  0  0  0
  7 14  1  0  0  0  0
  7 15  1  0  0  0  0
  7 16  1  0  0  0  0
M  END
>  <Substance ID> (656)
656

>  <Mouse_Female_Canc> (656)
3

>  <SAL> (656)
3

>  <Rat_Male_Canc> (656)
3

>  <TD50_Rat> (656)
54.1

>  <TD50_Mouse> (656)
310

>  <Rat_Female_Canc> (656)
3

>  <Canc> (656)
3

>  <MolWeight> (656)
103.12

>  <Mouse_Male_Canc> (656)
3

>  <Mouse_Male_NTP> (656)
SE

>  <ChemName> (656)
Isobutyl Nitrite

>  <Rat_Male_NTP> (656)
CE

>  <Reference> (656)
NTP448

>  <Formula> (656)
C4H9NO2

>  <SMILES> (656)
CC(CON=O)C

>  <Rat_Female_NTP> (656)
CE

>  <CAS> (656)
542-56-3

>  <Mouse_Female_NTP> (656)
SE

>  <Synonyms> (656)
IBN; Nitrous acid, 2-methylpropyl ester; nitrous acid, isobutyl ester.

$$$$
657
 

 18 18  0  0  0  0  0  0  0  0999 V2000
    8.2379  -64.1959   -0.2212 C   0  0  0  0  0  0  0  0  0  0  0  0
    6.9846  -63.5486    0.2901 C   0  0  0  0  0  0  0  0  0  0  0  0
    5.8491  -64.2240   -0.2465 O   0  0  0  0  0  0  0  0  0  0  0  0
    4.6609  -63.6125    0.2514 C   0  0  0  0  0  0  0  0  0  0  0  0
    3.4343  -64.3253   -0.3384 C   0  0  1  0  0  0  0  0  0  0  0  0
    9.4276  -63.7307    0.1537 C   0  0  0  0  0  0  0  0  0  0  0  0
    2.4530  -63.2546   -0.4817 O   0  0  0  0  0  0  0  0  0  0  0  0
    2.2470  -64.1555    0.5951 C   0  0  0  0  0  0  0  0  0  0  0  0
    8.1795  -64.9765   -0.8435 H   0  0  0  0  0  0  0  0  0  0  0  0
    6.9643  -63.6037    1.2884 H   0  0  0  0  0  0  0  0  0  0  0  0
    6.9659  -62.5893    0.0083 H   0  0  0  0  0  0  0  0  0  0  0  0
    4.6413  -63.6848    1.2485 H   0  0  0  0  0  0  0  0  0  0  0  0
    4.6458  -62.6483   -0.0137 H   0  0  0  0  0  0  0  0  0  0  0  0
    3.8155  -65.0872   -0.8620 H   0  0  0  0  0  0  0  0  0  0  0  0
   10.2630  -64.1619   -0.1869 H   0  0  0  0  0  0  0  0  0  0  0  0
    9.4857  -62.9501    0.7760 H   0  0  0  0  0  0  0  0  0  0  0  0
    2.3895  -63.8517    1.5371 H   0  0  0  0  0  0  0  0  0  0  0  0
    1.4890  -64.8070    0.5655 H   0  0  0  0  0  0  0  0  0  0  0  0
  1  2  1  0  0  0  0
  2  3  1  0  0  0  0
  3  4  1  0  0  0  0
  4  5  1  0  0  0  0
  1  6  2  0  0  0  0
  8  7  1  0  0  0  0
  5  8  1  0  0  0  0
  7  5  1  0  0  0  0
  1  9  1  0  0  0  0
  2 10  1  0  0  0  0
  2 11  1  0  0  0  0
  4 12  1  0  0  0  0
  4 13  1  0  0  0  0
  5 14  1  0  0  0  0
  6 15  1  0  0  0  0
  6 16  1  0  0  0  0
  8 17  1  0  0  0  0
  8 18  1  0  0  0  0
M  END
>  <Substance ID> (657)
657

>  <Mouse_Female_Canc> (657)
2

>  <SAL> (657)
3

>  <Rat_Male_Canc> (657)
2

>  <TD50_Rat> (657)
NP

>  <TD50_Mouse> (657)
182

>  <Rat_Female_Canc> (657)
1

>  <Canc> (657)
3

>  <MolWeight> (657)
114.14

>  <Mouse_Male_Canc> (657)
3

>  <Mouse_Male_NTP> (657)
SE

>  <ChemName> (657)
Allyl Glycidyl Ether

>  <Rat_Male_NTP> (657)
EE

>  <Reference> (657)
NTP376

>  <Formula> (657)
C6H10O2

>  <SMILES> (657)
C=CCOCC1CO1

>  <Rat_Female_NTP> (657)
NE

>  <CAS> (657)
106-92-3

>  <Mouse_Female_NTP> (657)
EE

>  <Synonyms> (657)
1,2-Epoxy-3-Allyloxypropane; 1-allyloxy-2,3-epoxypropane; [(2-propenyloxy)methyl]oxirane; AGE; Allyl 2,3-epoxypropyl ether; Allyl Glycidyl Ether-Ethylene Glycol Prepolymer(18/1).

$$$$
658
 

 38 38  0  0  0  0  0  0  0  0999 V2000
    2.3155  -72.4323   -0.0007 C   0  0  0  0  0  0  0  0  0  0  0  0
    2.4205  -73.7596   -0.0006 C   0  0  0  0  0  0  0  0  0  0  0  0
    4.8389  -73.6342    0.0005 C   0  0  0  0  0  0  0  0  0  0  0  0
    4.7231  -72.1755    0.0005 C   0  0  0  0  0  0  0  0  0  0  0  0
    3.7415  -74.3890    0.0003 C   0  0  0  0  0  0  0  0  0  0  0  0
    3.5206  -71.6032    0.0003 C   0  0  0  0  0  0  0  0  0  0  0  0
    3.4018  -70.1066    0.0003 C   0  0  0  0  0  0  0  0  0  0  0  0
    6.1592  -74.2625    0.0004 C   0  0  0  0  0  0  0  0  0  0  0  0
    6.2657  -75.5897    0.0005 C   0  0  0  0  0  0  0  0  0  0  0  0
    1.4127  -72.0022   -0.0015 H   0  0  0  0  0  0  0  0  0  0  0  0
    1.5966  -74.3263   -0.0012 H   0  0  0  0  0  0  0  0  0  0  0  0
    5.5468  -71.6085    0.0007 H   0  0  0  0  0  0  0  0  0  0  0  0
    3.8203  -75.3859    0.0009 H   0  0  0  0  0  0  0  0  0  0  0  0
    4.3150  -69.6992    0.0011 H   0  0  0  0  0  0  0  0  0  0  0  0
    2.9049  -69.8112    0.8163 H   0  0  0  0  0  0  0  0  0  0  0  0
    2.9062  -69.8111   -0.8165 H   0  0  0  0  0  0  0  0  0  0  0  0
    6.9826  -73.6951    0.0002 H   0  0  0  0  0  0  0  0  0  0  0  0
    7.1689  -76.0188    0.0003 H   0  0  0  0  0  0  0  0  0  0  0  0
    5.4425  -76.1574    0.0006 H   0  0  0  0  0  0  0  0  0  0  0  0
   10.4757  -71.8303   -0.0001 C   0  0  0  0  0  0  0  0  0  0  0  0
   10.5701  -73.1588    0.0001 C   0  0  0  0  0  0  0  0  0  0  0  0
   12.9907  -73.0523   -0.0004 C   0  0  0  0  0  0  0  0  0  0  0  0
   12.8870  -71.5910   -0.0007 C   0  0  0  0  0  0  0  0  0  0  0  0
   11.8868  -73.7986    0.0001 C   0  0  0  0  0  0  0  0  0  0  0  0
   11.6891  -71.0088   -0.0007 C   0  0  0  0  0  0  0  0  0  0  0  0
   14.3073  -73.6904   -0.0004 C   0  0  0  0  0  0  0  0  0  0  0  0
   14.4065  -75.0181    0.0002 C   0  0  0  0  0  0  0  0  0  0  0  0
    9.1262  -71.1747   -0.0001 C   0  0  0  0  0  0  0  0  0  0  0  0
    9.7418  -73.7191    0.0002 H   0  0  0  0  0  0  0  0  0  0  0  0
   13.7153  -71.0308   -0.0009 H   0  0  0  0  0  0  0  0  0  0  0  0
   11.9579  -74.7961    0.0005 H   0  0  0  0  0  0  0  0  0  0  0  0
   11.6178  -70.0114   -0.0011 H   0  0  0  0  0  0  0  0  0  0  0  0
   15.1343  -73.1282   -0.0008 H   0  0  0  0  0  0  0  0  0  0  0  0
   15.3074  -75.4522    0.0003 H   0  0  0  0  0  0  0  0  0  0  0  0
   13.5802  -75.5813    0.0006 H   0  0  0  0  0  0  0  0  0  0  0  0
    9.2378  -70.1810   -0.0003 H   0  0  0  0  0  0  0  0  0  0  0  0
    8.6201  -71.4526    0.8164 H   0  0  0  0  0  0  0  0  0  0  0  0
    8.6199  -71.4529   -0.8164 H   0  0  0  0  0  0  0  0  0  0  0  0
  1  2  2  0  0  0  0
  3  4  1  0  0  0  0
  1  6  1  0  0  0  0
  2  5  1  0  0  0  0
  5  3  2  0  0  0  0
  4  6  2  0  0  0  0
  6  7  1  0  0  0  0
  3  8  1  0  0  0  0
  8  9  2  0  0  0  0
  1 10  1  0  0  0  0
  2 11  1  0  0  0  0
  4 12  1  0  0  0  0
  5 13  1  0  0  0  0
  7 14  1  0  0  0  0
  7 15  1  0  0  0  0
  7 16  1  0  0  0  0
  8 17  1  0  0  0  0
  9 18  1  0  0  0  0
  9 19  1  0  0  0  0
 20 21  2  0  0  0  0
 22 23  1  0  0  0  0
 20 25  1  0  0  0  0
 21 24  1  0  0  0  0
 24 22  2  0  0  0  0
 23 25  2  0  0  0  0
 22 26  1  0  0  0  0
 26 27  2  0  0  0  0
 20 28  1  0  0  0  0
 21 29  1  0  0  0  0
 23 30  1  0  0  0  0
 24 31  1  0  0  0  0
 25 32  1  0  0  0  0
 26 33  1  0  0  0  0
 27 34  1  0  0  0  0
 27 35  1  0  0  0  0
 28 36  1  0  0  0  0
 28 37  1  0  0  0  0
 28 38  1  0  0  0  0
M  END
>  <Substance ID> (658)
658

>  <Mouse_Female_Canc> (658)
1

>  <SAL> (658)
1

>  <Rat_Male_Canc> (658)
1

>  <TD50_Rat> (658)
NP

>  <TD50_Mouse> (658)
NP

>  <Rat_Female_Canc> (658)
1

>  <Canc> (658)
1

>  <MolWeight> (658)
118.18

>  <Mouse_Male_Canc> (658)
1

>  <Mouse_Male_NTP> (658)
NE

>  <ChemName> (658)
Vinyl Toluene

>  <Rat_Male_NTP> (658)
NE

>  <Reference> (658)
NTP375

>  <Formula> (658)
C9H10 

>  <SMILES> (658)
C=C\c1cc(ccc1)C.C=C\c1ccc(cc1)C

>  <Rat_Female_NTP> (658)
NE

>  <CAS> (658)
25013-15-4

>  <Mouse_Female_NTP> (658)
NE

>  <Synonyms> (658)
ethenylmethylbenzene; methylethenylbenzene; methylstyrene; methylstyrenetolylethylene; Methylstyrene (mixed isomers); Methyl styrene (mixture); Vinyl Toluene, Mixed Isomers; Vinyltoluene, stabilized with 10 to 15 ppm p-tert-butylcatechol.

$$$$
659
 

 18 18  0  0  0  0  0  0  0  0999 V2000
    1.6524  -80.2306   -0.0514 C   0  0  0  0  0  0  0  0  0  0  0  0
    1.4996  -81.5485   -0.0337 C   0  0  0  0  0  0  0  0  0  0  0  0
    3.8921  -81.9134    0.0594 C   0  0  0  0  0  0  0  0  0  0  0  0
    4.0915  -80.3897    0.0281 C   0  0  0  0  0  0  0  0  0  0  0  0
    2.6586  -82.4100    0.0265 C   0  0  0  0  0  0  0  0  0  0  0  0
    2.9894  -79.6374   -0.0203 C   0  0  0  0  0  0  0  0  0  0  0  0
    5.1368  -83.0819    0.1504 Cl  0  0  0  0  0  0  0  0  0  0  0  0
    5.4028  -79.5885    0.0459 C   0  0  0  0  0  0  0  0  0  0  0  0
    6.6995  -79.9512    0.0219 C   0  0  0  0  0  0  0  0  0  0  0  0
    7.6899  -78.9344   -0.0023 C   0  0  0  0  0  0  0  0  0  0  0  0
    7.1670  -81.2580   -0.0813 C   0  0  0  0  0  0  0  0  0  0  0  0
    8.5311  -78.1487   -0.0013 N   0  0  0  0  0  0  0  0  0  0  0  0
    7.6075  -82.3193   -0.1414 N   0  0  0  0  0  0  0  0  0  0  0  0
    0.8475  -79.6382   -0.0863 H   0  0  0  0  0  0  0  0  0  0  0  0
    0.5823  -81.9458   -0.0620 H   0  0  0  0  0  0  0  0  0  0  0  0
    2.5303  -83.4016    0.0438 H   0  0  0  0  0  0  0  0  0  0  0  0
    3.0804  -78.6417   -0.0357 H   0  0  0  0  0  0  0  0  0  0  0  0
    5.2656  -78.5987    0.0827 H   0  0  0  0  0  0  0  0  0  0  0  0
  1  2  2  0  0  0  0
  3  4  1  0  0  0  0
  1  6  1  0  0  0  0
  2  5  1  0  0  0  0
  5  3  2  0  0  0  0
  4  6  2  0  0  0  0
  3  7  1  0  0  0  0
  4  8  1  0  0  0  0
  8  9  2  0  0  0  0
  9 10  1  0  0  0  0
  9 11  1  0  0  0  0
 10 12  3  0  0  0  0
 11 13  3  0  0  0  0
  1 14  1  0  0  0  0
  2 15  1  0  0  0  0
  5 16  1  0  0  0  0
  6 17  1  0  0  0  0
  8 18  1  0  0  0  0
M  END
>  <Substance ID> (659)
659

>  <Mouse_Female_Canc> (659)
1

>  <SAL> (659)
2

>  <Rat_Male_Canc> (659)
1

>  <TD50_Rat> (659)
NP

>  <TD50_Mouse> (659)
NP

>  <Rat_Female_Canc> (659)
1

>  <Canc> (659)
1

>  <MolWeight> (659)
188.62

>  <Mouse_Male_Canc> (659)
1

>  <Mouse_Male_NTP> (659)
NE

>  <ChemName> (659)
o-Chlorobenzalmalononitrile

>  <Rat_Male_NTP> (659)
NE

>  <Reference> (659)
NTP377

>  <Formula> (659)
C10H5ClN2

>  <SMILES> (659)
ClC1=CC=CC=C1C=C(C#N)C#N

>  <Rat_Female_NTP> (659)
NE

>  <CAS> (659)
2698-41-1

>  <Mouse_Female_NTP> (659)
NE

>  <Synonyms> (659)
ortho-Chlorobenzylidene malononitrile; 2-chlorobmn; ((2-chlorophenyl)methylene)propanedinitrile; beta,beta-dicyano-o-chlorostyrene; CS; CS2; CS GAS; OCBM.

$$$$
660
 

 17 17  0  0  0  0  0  0  0  0999 V2000
    2.2589  -90.5799   -0.0001 C   0  0  0  0  0  0  0  0  0  0  0  0
    2.2302  -91.9101    0.0003 C   0  0  0  0  0  0  0  0  0  0  0  0
    4.6472  -92.0292   -0.0001 C   0  0  0  0  0  0  0  0  0  0  0  0
    4.6795  -90.5661   -0.0002 C   0  0  0  0  0  0  0  0  0  0  0  0
    3.4805  -92.6689   -0.0003 C   0  0  0  0  0  0  0  0  0  0  0  0
    3.5417  -89.8754    0.0007 C   0  0  0  0  0  0  0  0  0  0  0  0
    5.9626  -89.8634   -0.0000 C   0  0  0  0  0  0  0  0  0  0  0  0
    7.2451  -90.6443    0.0000 C   0  0  0  0  0  0  0  0  0  0  0  0
    8.6155  -89.5280    0.0010 Cl  0  0  0  0  0  0  0  0  0  0  0  0
    5.9912  -88.6268   -0.0002 O   0  0  0  0  0  0  0  0  0  0  0  0
    1.4038  -90.0614   -0.0010 H   0  0  0  0  0  0  0  0  0  0  0  0
    1.3535  -92.3912    0.0010 H   0  0  0  0  0  0  0  0  0  0  0  0
    5.5020  -92.5482    0.0001 H   0  0  0  0  0  0  0  0  0  0  0  0
    3.4586  -93.6687   -0.0008 H   0  0  0  0  0  0  0  0  0  0  0  0
    3.5633  -88.8756    0.0020 H   0  0  0  0  0  0  0  0  0  0  0  0
    7.2842  -91.2205    0.8164 H   0  0  0  0  0  0  0  0  0  0  0  0
    7.2848  -91.2197   -0.8169 H   0  0  0  0  0  0  0  0  0  0  0  0
  1  2  2  0  0  0  0
  3  4  1  0  0  0  0
  1  6  1  0  0  0  0
  2  5  1  0  0  0  0
  5  3  2  0  0  0  0
  4  6  2  0  0  0  0
  4  7  1  0  0  0  0
  7  8  1  0  0  0  0
  8  9  1  0  0  0  0
  7 10  2  0  0  0  0
  1 11  1  0  0  0  0
  2 12  1  0  0  0  0
  3 13  1  0  0  0  0
  5 14  1  0  0  0  0
  6 15  1  0  0  0  0
  8 16  1  0  0  0  0
  8 17  1  0  0  0  0
M  END
>  <Substance ID> (660)
660

>  <Mouse_Female_Canc> (660)
1

>  <SAL> (660)
1

>  <Rat_Male_Canc> (660)
1

>  <TD50_Rat> (660)
NP

>  <TD50_Mouse> (660)
NP

>  <Rat_Female_Canc> (660)
2

>  <Canc> (660)
2

>  <MolWeight> (660)
154.60

>  <Mouse_Male_Canc> (660)
1

>  <Mouse_Male_NTP> (660)
NE

>  <ChemName> (660)
2-Chloroacetophenone

>  <Rat_Male_NTP> (660)
NE

>  <Reference> (660)
NTP379

>  <Formula> (660)
C8H7ClO

>  <SMILES> (660)
O=C(C1=CC=CC=C1)CCl

>  <Rat_Female_NTP> (660)
EE

>  <CAS> (660)
532-27-4

>  <Mouse_Female_NTP> (660)
NE

>  <Synonyms> (660)
2-Chloro-1-phenylethanone; 2-Chloroacetonephenone; alpha-Chloroacetophenone; alpha-phenacyl chloride; Chloroacetophenone, 2-; chloromethyl phenyl ketone; CN; MACE; phenacylchloride; Phenyl chloromethyl ketone; Tear gas; omega-chloroacetophenone.

$$$$
661


 14 14  0  0  0  0  0  0  0  0999 V2000
   34.5680   -4.9003   -0.0003 C   0  0  0  0  0  0  0  0  0  0  0  0
   34.7288   -6.2223    0.0004 C   0  0  0  0  0  0  0  0  0  0  0  0
   37.1407   -5.9960    0.0003 C   0  0  0  0  0  0  0  0  0  0  0  0
   36.9643   -4.5422    0.0005 C   0  0  0  0  0  0  0  0  0  0  0  0
   36.0759   -6.7963    0.0007 C   0  0  0  0  0  0  0  0  0  0  0  0
   35.7388   -4.0204    0.0004 C   0  0  0  0  0  0  0  0  0  0  0  0
   35.5623   -2.5691    0.0006 C   0  0  0  0  0  0  0  0  0  0  0  0
   36.5505   -1.8268   -0.0005 O   0  0  0  0  0  0  0  0  0  0  0  0
   33.6480   -4.5084   -0.0012 H   0  0  0  0  0  0  0  0  0  0  0  0
   33.9294   -6.8231    0.0006 H   0  0  0  0  0  0  0  0  0  0  0  0
   38.0607   -6.3880   -0.0001 H   0  0  0  0  0  0  0  0  0  0  0  0
   37.7637   -3.9414    0.0007 H   0  0  0  0  0  0  0  0  0  0  0  0
   36.1964   -7.7890    0.0012 H   0  0  0  0  0  0  0  0  0  0  0  0
   34.6423   -2.1772    0.0017 H   0  0  0  0  0  0  0  0  0  0  0  0
  1  2  2  0  0  0  0
  3  4  1  0  0  0  0
  1  6  1  0  0  0  0
  2  5  1  0  0  0  0
  5  3  2  0  0  0  0
  4  6  2  0  0  0  0
  6  7  1  0  0  0  0
  7  8  2  0  0  0  0
  1  9  1  0  0  0  0
  2 10  1  0  0  0  0
  3 11  1  0  0  0  0
  4 12  1  0  0  0  0
  5 13  1  0  0  0  0
  7 14  1  0  0  0  0
M  END
>  <Substance ID> (661)
661

>  <Mouse_Female_Canc> (661)
3

>  <SAL> (661)
1

>  <Rat_Male_Canc> (661)
1

>  <TD50_Rat> (661)
NP

>  <TD50_Mouse> (661)
1490

>  <Rat_Female_Canc> (661)
1

>  <Canc> (661)
3

>  <MolWeight> (661)
106.12

>  <Mouse_Male_Canc> (661)
3

>  <Mouse_Male_NTP> (661)
SE

>  <ChemName> (661)
Benzaldehyde 

>  <Rat_Male_NTP> (661)
NE

>  <Reference> (661)
NTP378

>  <Formula> (661)
C7H6O

>  <SMILES> (661)
O=CC1=CC=CC=C1

>  <Rat_Female_NTP> (661)
NE

>  <CAS> (661)
100-52-7

>  <Mouse_Female_NTP> (661)
SE

>  <Synonyms> (661)
Almond artificial essential oil; artificial almond oil; Artificial Bitter Almond Oil; Artificial essential oil of almond; benzenecarbonal; benzenecarboxaldehyde; Benzenemethylal; Benzoic aldehyde; Benzoyl hydride; oil of bitter almond; Phenylmethanal.

$$$$
662
 

 25 25  0  0  0  0  0  0  0  0999 V2000
   39.1812  -14.0078    0.0825 C   0  0  0  0  0  0  0  0  0  0  0  0
   39.1381  -15.4942    0.3184 C   0  0  0  0  0  0  0  0  0  0  0  0
   40.3911  -16.1349   -0.2746 C   0  0  1  0  0  0  0  0  0  0  0  0
   41.6906  -15.5291    0.2550 C   0  0  0  0  0  0  0  0  0  0  0  0
   41.6342  -14.0427    0.0766 C   0  0  0  0  0  0  0  0  0  0  0  0
   40.3379  -13.3483   -0.0387 C   0  0  0  0  0  0  0  0  0  0  0  0
   40.3164  -11.8652   -0.2649 C   0  0  0  0  0  0  0  0  0  0  0  0
   42.6827  -13.3889    0.0500 O   0  0  0  0  0  0  0  0  0  0  0  0
   40.3789  -17.6269   -0.1180 C   0  0  0  0  0  0  0  0  0  0  0  0
   39.0731  -18.3610   -0.0184 C   0  0  0  0  0  0  0  0  0  0  0  0
   41.5260  -18.3008   -0.0675 C   0  0  0  0  0  0  0  0  0  0  0  0
   38.3221  -13.5004    0.0149 H   0  0  0  0  0  0  0  0  0  0  0  0
   39.1032  -15.6757    1.3011 H   0  0  0  0  0  0  0  0  0  0  0  0
   38.3263  -15.8788   -0.1211 H   0  0  0  0  0  0  0  0  0  0  0  0
   40.3661  -15.9268   -1.2524 H   0  0  0  0  0  0  0  0  0  0  0  0
   41.7930  -15.7479    1.2254 H   0  0  0  0  0  0  0  0  0  0  0  0
   42.4670  -15.9000   -0.2545 H   0  0  0  0  0  0  0  0  0  0  0  0
   41.2540  -11.5244   -0.3336 H   0  0  0  0  0  0  0  0  0  0  0  0
   39.8548  -11.4175    0.5009 H   0  0  0  0  0  0  0  0  0  0  0  0
   39.8261  -11.6640   -1.1129 H   0  0  0  0  0  0  0  0  0  0  0  0
   39.2476  -19.3406    0.0813 H   0  0  0  0  0  0  0  0  0  0  0  0
   38.5363  -18.2011   -0.8468 H   0  0  0  0  0  0  0  0  0  0  0  0
   38.5644  -18.0310    0.7768 H   0  0  0  0  0  0  0  0  0  0  0  0
   41.5176  -19.2952    0.0369 H   0  0  0  0  0  0  0  0  0  0  0  0
   42.3961  -17.8124   -0.1340 H   0  0  0  0  0  0  0  0  0  0  0  0
  1  2  1  0  0  0  0
  1  6  2  0  0  0  0
  2  3  1  0  0  0  0
  3  4  1  0  0  0  0
  4  5  1  0  0  0  0
  5  6  1  0  0  0  0
  6  7  1  0  0  0  0
  5  8  2  0  0  0  0
  3  9  1  0  0  0  0
  9 10  1  0  0  0  0
  9 11  2  0  0  0  0
  1 12  1  0  0  0  0
  2 13  1  0  0  0  0
  2 14  1  0  0  0  0
  3 15  1  0  0  0  0
  4 16  1  0  0  0  0
  4 17  1  0  0  0  0
  7 18  1  0  0  0  0
  7 19  1  0  0  0  0
  7 20  1  0  0  0  0
 10 21  1  0  0  0  0
 10 22  1  0  0  0  0
 10 23  1  0  0  0  0
 11 24  1  0  0  0  0
 11 25  1  0  0  0  0
M  END
>  <Substance ID> (662)
662

>  <Mouse_Female_Canc> (662)
1

>  <SAL> (662)
1

>  <Rat_Male_Canc> (662)
ND

>  <TD50_Rat> (662)
ND

>  <TD50_Mouse> (662)
NP

>  <Rat_Female_Canc> (662)
ND

>  <Canc> (662)
1

>  <MolWeight> (662)
150.22

>  <Mouse_Male_Canc> (662)
1

>  <Mouse_Male_NTP> (662)
NE

>  <ChemName> (662)
D-Carvone

>  <Rat_Male_NTP> (662)
ND

>  <Reference> (662)
NTP381

>  <Formula> (662)
C10H14O

>  <SMILES> (662)
CC(=C)[C@@H]1CC(=O)C(=CC1)C

>  <Rat_Female_NTP> (662)
ND

>  <CAS> (662)
2244-16-8

>  <Mouse_Female_NTP> (662)
NE

>  <Synonyms> (662)
(+)-(4S)-carvone; (+)-carvone; (+)-(S)-Carvone; 2-Methyl-5-(1-methylethenyl)-2-cyclohexene-1-one; D-1-methyl-4-isopropenyl-6-cyclohexen-2-one; D-p-mentha-6,8,(9)-dien-2-one; (S)-(+)-p-mentha-6,8-dien-2-one; (S)-(+)-Carvone; (S)-2-methyl-5-(1-methylethenyl)-2-Cyclohexen-1-one; (S)-carvone.

$$$$
663
  

 29 30  0  0  0  0  0  0  0  0999 V2000
   35.8632  -28.7409   -0.0000 C   0  0  0  0  0  0  0  0  0  0  0  0
   35.8261  -30.0738   -0.0021 C   0  0  0  0  0  0  0  0  0  0  0  0
   37.0748  -30.8206   -0.0021 C   0  0  0  0  0  0  0  0  0  0  0  0
   37.0965  -28.0599    0.0007 N   0  0  0  0  0  0  0  0  0  0  0  0
   38.2002  -28.6946   -0.0003 C   0  0  0  0  0  0  0  0  0  0  0  0
   38.2169  -30.1431   -0.0010 C   0  0  0  0  0  0  0  0  0  0  0  0
   39.4845  -30.8254   -0.0012 C   0  0  0  0  0  0  0  0  0  0  0  0
   40.7131  -30.0286    0.0006 C   0  0  0  0  0  0  0  0  0  0  0  0
   40.6513  -28.6914    0.0016 C   0  0  0  0  0  0  0  0  0  0  0  0
   39.4090  -27.9931    0.0004 N   0  0  0  0  0  0  0  0  0  0  0  0
   34.5842  -27.9584    0.0011 C   0  0  0  0  0  0  0  0  0  0  0  0
   39.3868  -26.5546   -0.0005 C   0  0  0  0  0  0  0  0  0  0  0  0
   40.8225  -25.9978    0.0009 C   0  0  0  0  0  0  0  0  0  0  0  0
   42.0185  -30.7010    0.0009 C   0  0  0  0  0  0  0  0  0  0  0  0
   43.1885  -29.9514    0.0000 O   0  0  0  0  0  0  0  0  0  0  0  0
   42.0834  -31.9355    0.0005 O   0  0  0  0  0  0  0  0  0  0  0  0
   39.5247  -32.0628   -0.0005 O   0  0  0  0  0  0  0  0  0  0  0  0
   34.9494  -30.5549   -0.0036 H   0  0  0  0  0  0  0  0  0  0  0  0
   37.0730  -31.8205   -0.0029 H   0  0  0  0  0  0  0  0  0  0  0  0
   41.5025  -28.1666    0.0031 H   0  0  0  0  0  0  0  0  0  0  0  0
   34.7914  -26.9802    0.0026 H   0  0  0  0  0  0  0  0  0  0  0  0
   34.0534  -28.1875    0.8170 H   0  0  0  0  0  0  0  0  0  0  0  0
   34.0536  -28.1850   -0.8157 H   0  0  0  0  0  0  0  0  0  0  0  0
   38.9090  -26.2328   -0.8179 H   0  0  0  0  0  0  0  0  0  0  0  0
   38.9071  -26.2317    0.8154 H   0  0  0  0  0  0  0  0  0  0  0  0
   40.7929  -24.9983    0.0002 H   0  0  0  0  0  0  0  0  0  0  0  0
   41.3051  -26.3171   -0.8147 H   0  0  0  0  0  0  0  0  0  0  0  0
   41.3032  -26.3161    0.8181 H   0  0  0  0  0  0  0  0  0  0  0  0
   43.9780  -30.5650    0.0004 H   0  0  0  0  0  0  0  0  0  0  0  0
  1  2  2  0  0  0  0
  1  4  1  0  0  0  0
  2  3  1  0  0  0  0
  3  6  2  0  0  0  0
  5  4  2  0  0  0  0
  5  6  1  0  0  0  0
  5 10  1  0  0  0  0
  6  7  1  0  0  0  0
  7  8  1  0  0  0  0
  8  9  2  0  0  0  0
  9 10  1  0  0  0  0
  1 11  1  0  0  0  0
 10 12  1  0  0  0  0
 12 13  1  0  0  0  0
  8 14  1  0  0  0  0
 14 15  1  0  0  0  0
 14 16  2  0  0  0  0
  7 17  2  0  0  0  0
  2 18  1  0  0  0  0
  3 19  1  0  0  0  0
  9 20  1  0  0  0  0
 11 21  1  0  0  0  0
 11 22  1  0  0  0  0
 11 23  1  0  0  0  0
 12 24  1  0  0  0  0
 12 25  1  0  0  0  0
 13 26  1  0  0  0  0
 13 27  1  0  0  0  0
 13 28  1  0  0  0  0
 15 29  1  0  0  0  0
M  END
>  <Substance ID> (663)
663

>  <Mouse_Female_Canc> (663)
1

>  <SAL> (663)
1

>  <Rat_Male_Canc> (663)
3

>  <TD50_Rat> (663)
201

>  <TD50_Mouse> (663)
NP

>  <Rat_Female_Canc> (663)
3

>  <Canc> (663)
3

>  <MolWeight> (663)
232.24

>  <Mouse_Male_Canc> (663)
2

>  <Mouse_Male_NTP> (663)
EE

>  <ChemName> (663)
Nalidixic acid

>  <Rat_Male_NTP> (663)
CE

>  <Reference> (663)
NTP368

>  <Formula> (663)
C12H12N2O3

>  <SMILES> (663)
O=C1C2=C(N=C(C=C2)C)N(C=C1C(=O)O)CC

>  <Rat_Female_NTP> (663)
CE

>  <CAS> (663)
389-08-2

>  <Mouse_Female_NTP> (663)
NE

>  <Synonyms> (663)
1,4-dihydro-1-ethyl-7-methyl-4-oxo-1,8-naphthyridine-3-carboxylic acid; 1-Ethyl-1,4-dihydro-7-methyl-4-oxo-1,8-naphthyridine-3-carboxylic acid; 1-ethyl-7-methyl-1,4-dihydro-1,8-naphthyridin-4-one-3-carboxylic acid; 1-ethyl-7-methyl-4-oxo-1,4-dihydro-1,8-naphthyridine-3-carboxylic acid; naladixic acid; nalidic acid; nalidixin; NegGRAM; negram; urisal; wil 18,320; wintomylon.

$$$$
664
 

 26 28  0  0  0  0  0  0  0  0999 V2000
   31.4445  -49.9611   -0.0014 C   0  0  0  0  0  0  0  0  0  0  0  0
   31.4446  -51.2933   -0.0002 C   0  0  0  0  0  0  0  0  0  0  0  0
   32.7145  -52.0201   -0.0001 C   0  0  0  0  0  0  0  0  0  0  0  0
   32.7156  -49.2318   -0.0024 C   0  0  0  0  0  0  0  0  0  0  0  0
   33.8637  -49.9058   -0.0019 C   0  0  0  0  0  0  0  0  0  0  0  0
   33.8617  -51.3447   -0.0008 C   0  0  0  0  0  0  0  0  0  0  0  0
   35.1192  -52.0479    0.0001 C   0  0  0  0  0  0  0  0  0  0  0  0
   35.1325  -49.2058   -0.0018 C   0  0  0  0  0  0  0  0  0  0  0  0
   36.3981  -49.9617    0.0005 C   0  0  0  0  0  0  0  0  0  0  0  0
   36.3944  -51.3016    0.0008 C   0  0  0  0  0  0  0  0  0  0  0  0
   38.8235  -51.3623   -0.0010 C   0  0  0  0  0  0  0  0  0  0  0  0
   38.8263  -49.9032    0.0012 C   0  0  0  0  0  0  0  0  0  0  0  0
   37.6766  -52.0335    0.0002 C   0  0  0  0  0  0  0  0  0  0  0  0
   37.6774  -49.2336    0.0018 C   0  0  0  0  0  0  0  0  0  0  0  0
   35.1464  -47.9713   -0.0013 O   0  0  0  0  0  0  0  0  0  0  0  0
   35.1090  -53.2797    0.0010 O   0  0  0  0  0  0  0  0  0  0  0  0
   37.6955  -47.8385    0.0021 N   0  0  0  0  0  0  0  0  0  0  0  0
   40.4757  -48.9581    0.0028 Br  0  0  0  0  0  0  0  0  0  0  0  0
   37.7283  -53.9390    0.0001 Br  0  0  0  0  0  0  0  0  0  0  0  0
   30.5792  -49.4600   -0.0017 H   0  0  0  0  0  0  0  0  0  0  0  0
   30.5795  -51.7950    0.0007 H   0  0  0  0  0  0  0  0  0  0  0  0
   32.7207  -53.0200    0.0005 H   0  0  0  0  0  0  0  0  0  0  0  0
   32.7206  -48.2318   -0.0035 H   0  0  0  0  0  0  0  0  0  0  0  0
   39.6905  -51.8606   -0.0035 H   0  0  0  0  0  0  0  0  0  0  0  0
   38.5679  -47.3498    0.0030 H   0  0  0  0  0  0  0  0  0  0  0  0
   36.8361  -47.3273    0.0015 H   0  0  0  0  0  0  0  0  0  0  0  0
  1  2  2  0  0  0  0
  1  4  1  0  0  0  0
  2  3  1  0  0  0  0
  3  6  2  0  0  0  0
  5  4  2  0  0  0  0
  5  6  1  0  0  0  0
  5  8  1  0  0  0  0
  6  7  1  0  0  0  0
  7 10  1  0  0  0  0
  9  8  1  0  0  0  0
  9 10  2  0  0  0  0
 11 12  1  0  0  0  0
  9 14  1  0  0  0  0
 10 13  1  0  0  0  0
 13 11  2  0  0  0  0
 12 14  2  0  0  0  0
  8 15  2  0  0  0  0
  7 16  2  0  0  0  0
 14 17  1  0  0  0  0
 12 18  1  0  0  0  0
 13 19  1  0  0  0  0
  1 20  1  0  0  0  0
  2 21  1  0  0  0  0
  3 22  1  0  0  0  0
  4 23  1  0  0  0  0
 11 24  1  0  0  0  0
 17 25  1  0  0  0  0
 17 26  1  0  0  0  0
M  END
>  <Substance ID> (664)
664

>  <Mouse_Female_Canc> (664)
3

>  <SAL> (664)
3

>  <Rat_Male_Canc> (664)
3

>  <TD50_Rat> (664)
46

>  <TD50_Mouse> (664)
477

>  <Rat_Female_Canc> (664)
3

>  <Canc> (664)
3

>  <MolWeight> (664)
381.02

>  <Mouse_Male_Canc> (664)
3

>  <Mouse_Male_NTP> (664)
CE

>  <ChemName> (664)
1-Amino-2,4-Dibromoanthraquinone

>  <Rat_Male_NTP> (664)
CE

>  <Reference> (664)
NTP383

>  <Formula> (664)
C14H7Br2NO2

>  <SMILES> (664)
O=C1C2=C(C(=CC(=C2C(=O)C3=C1C=CC=C3)Br)Br)N

>  <Rat_Female_NTP> (664)
CE

>  <CAS> (664)
81-49-2

>  <Mouse_Female_NTP> (664)
CE

>  <Synonyms> (664)
1-amino-2,4-dibromo-9,10-Anthracenedione; 2,4-dibromo-1-anthraquinonylamine.

$$$$
665
 

 19 19  0  0  0  0  0  0  0  0999 V2000
   32.6678  -59.0823    0.0564 C   0  0  0  0  0  0  0  0  0  0  0  0
   32.6721  -60.4144    0.0696 C   0  0  0  0  0  0  0  0  0  0  0  0
   35.0929  -60.4743   -0.0132 C   0  0  0  0  0  0  0  0  0  0  0  0
   35.0882  -59.0072   -0.0273 C   0  0  0  0  0  0  0  0  0  0  0  0
   33.9423  -61.1436    0.0331 C   0  0  0  0  0  0  0  0  0  0  0  0
   33.9327  -58.3458    0.0056 C   0  0  0  0  0  0  0  0  0  0  0  0
   36.3822  -58.2450   -0.0800 C   0  0  2  0  0  0  0  0  0  0  0  0
   37.5787  -59.1524    0.2681 C   0  0  0  0  0  0  0  0  0  0  0  0
   36.3038  -57.1118    0.7875 O   0  0  0  0  0  0  0  0  0  0  0  0
   31.8006  -58.5851    0.0813 H   0  0  0  0  0  0  0  0  0  0  0  0
   31.8081  -60.9168    0.1044 H   0  0  0  0  0  0  0  0  0  0  0  0
   35.9601  -60.9718   -0.0384 H   0  0  0  0  0  0  0  0  0  0  0  0
   33.9454  -62.1435    0.0429 H   0  0  0  0  0  0  0  0  0  0  0  0
   33.9288  -57.3458   -0.0043 H   0  0  0  0  0  0  0  0  0  0  0  0
   36.5326  -57.9191   -1.0133 H   0  0  0  0  0  0  0  0  0  0  0  0
   38.4245  -58.6206    0.2254 H   0  0  0  0  0  0  0  0  0  0  0  0
   37.6267  -59.9072   -0.3862 H   0  0  0  0  0  0  0  0  0  0  0  0
   37.4622  -59.5190    1.1912 H   0  0  0  0  0  0  0  0  0  0  0  0
   37.1648  -56.6045    0.7526 H   0  0  0  0  0  0  0  0  0  0  0  0
  1  2  2  0  0  0  0
  3  4  1  0  0  0  0
  1  6  1  0  0  0  0
  2  5  1  0  0  0  0
  5  3  2  0  0  0  0
  4  6  2  0  0  0  0
  4  7  1  0  0  0  0
  7  8  1  0  0  0  0
  7  9  1  1  0  0  0
  1 10  1  0  0  0  0
  2 11  1  0  0  0  0
  3 12  1  0  0  0  0
  5 13  1  0  0  0  0
  6 14  1  0  0  0  0
  7 15  1  0  0  0  0
  8 16  1  0  0  0  0
  8 17  1  0  0  0  0
  8 18  1  0  0  0  0
  9 19  1  0  0  0  0
M  END
>  <Substance ID> (665)
665

>  <Mouse_Female_Canc> (665)
1

>  <SAL> (665)
1

>  <Rat_Male_Canc> (665)
3

>  <TD50_Rat> (665)
458

>  <TD50_Mouse> (665)
NP

>  <Rat_Female_Canc> (665)
1

>  <Canc> (665)
3

>  <MolWeight> (665)
122.17

>  <Mouse_Male_Canc> (665)
1

>  <Mouse_Male_NTP> (665)
NE

>  <ChemName> (665)
alpha-Methylbenzyl alcohol

>  <Rat_Male_NTP> (665)
SE

>  <Reference> (665)
NTP369

>  <Formula> (665)
C8H10O

>  <SMILES> (665)
C1=CC=C([C@@H](O)(C))C=C1

>  <Rat_Female_NTP> (665)
NE

>  <CAS> (665)
98-85-1

>  <Mouse_Female_NTP> (665)
NE

>  <Synonyms> (665)
1-phenylethan-1-ol; 1-Phenyl ethyl alcohol; alpha-methyl-benzenemethanol; alpha-phenylethyl alcohol; beta-Hydroxyethylbenzene; beta-Phenethyl Alcohol; DL-sec-Phenethyl alcohol; methylphenylcarbinol; methyl phenyl methanol; phenylmethylcarbinol; (S)-1-Phenylethyl alcohol; (S)-1-Phenylethanol; sec-phenethyl alcohol; Styralyl alcohol; styrallyl alcohol.

$$$$
666
 

 36 37  0  0  0  0  0  0  0  0999 V2000
    0.0278    1.8492    1.2220 C   0  0  2  0  0  0  0  0  0  1  0  0
    1.4045    2.4713    1.4427 C   0  0  0  0  0  0  0  0  0  2  0  0
    0.0578    0.3333    1.2845 C   0  0  0  0  0  0  0  0  0  3  0  0
   -0.6803    2.3536   -0.0564 C   0  0  1  0  0  0  0  0  0  4  0  0
    1.9244    2.0660    2.6343 O   0  0  0  0  0  0  0  0  0  5  0  0
    1.9602    3.2295    0.6805 O   0  0  0  0  0  0  0  0  0  6  0  0
    1.1538   -0.3954    0.8044 C   0  0  0  0  0  0  0  0  0  7  0  0
   -1.0269   -0.3788    1.8113 C   0  0  0  0  0  0  0  0  0  8  0  0
   -0.0707    1.8077   -1.3592 C   0  0  0  0  0  0  0  0  0  9  0  0
   -2.1036    2.0046    0.0073 N   0  0  0  0  0  0  0  0  0 10  0  0
    3.2083    2.5632    2.9555 C   0  0  0  0  0  0  0  0  0 11  0  0
    1.1729   -1.7904    0.8576 C   0  0  0  0  0  0  0  0  0 12  0  0
   -1.0200   -1.7743    1.8595 C   0  0  0  0  0  0  0  0  0 13  0  0
   -0.8179    2.3490   -2.5848 C   0  0  0  0  0  0  0  0  0 14  0  0
   -2.8644    2.5190   -1.1305 C   0  0  0  0  0  0  0  0  0 15  0  0
    0.0829   -2.4847    1.3838 C   0  0  0  0  0  0  0  0  0 16  0  0
   -2.3083    2.0090   -2.4656 C   0  0  0  0  0  0  0  0  0 17  0  0
   -0.5679    2.2202    2.0945 H   0  0  0  0  0  0  0  0  0 18  0  0
   -0.6114    3.4700   -0.0637 H   0  0  0  0  0  0  0  0  0 19  0  0
    2.0192    0.1272    0.3666 H   0  0  0  0  0  0  0  0  0 20  0  0
   -1.9088    0.1624    2.1905 H   0  0  0  0  0  0  0  0  0 21  0  0
   -0.1456    0.6959   -1.3679 H   0  0  0  0  0  0  0  0  0 22  0  0
    1.0100    2.0688   -1.4348 H   0  0  0  0  0  0  0  0  0 23  0  0
   -2.5039    2.3764    0.8692 H   0  0  0  0  0  0  0  0  0 24  0  0
    3.5011    2.1447    3.9442 H   0  0  0  0  0  0  0  0  0 25  0  0
    3.1818    3.6735    3.0286 H   0  0  0  0  0  0  0  0  0 26  0  0
    3.9477    2.2314    2.1924 H   0  0  0  0  0  0  0  0  0 27  0  0
    2.0450   -2.3445    0.4740 H   0  0  0  0  0  0  0  0  0 28  0  0
   -1.8867   -2.3160    2.2719 H   0  0  0  0  0  0  0  0  0 29  0  0
   -0.3960    1.9111   -3.5207 H   0  0  0  0  0  0  0  0  0 30  0  0
   -0.6870    3.4554   -2.6465 H   0  0  0  0  0  0  0  0  0 31  0  0
   -2.8488    3.6338   -1.1046 H   0  0  0  0  0  0  0  0  0 32  0  0
   -3.9280    2.2032   -1.0132 H   0  0  0  0  0  0  0  0  0 33  0  0
    0.0915   -3.5861    1.4189 H   0  0  0  0  0  0  0  0  0 34  0  0
   -2.4428    0.9022   -2.5220 H   0  0  0  0  0  0  0  0  0 35  0  0
   -2.8750    2.4566   -3.3163 H   0  0  0  0  0  0  0  0  0 36  0  0
  1  2  1  0  0  0  0
  1  3  1  0  0  0  0
  1  4  1  6  0  0  0
  1 18  1  1  0  0  0
  2  5  1  1  0  0  0
  2  6  2  0  0  0  0
  3  7  2  0  0  0  0
  3  8  1  0  0  0  0
  4  9  1  6  0  0  0
  4 10  1  0  0  0  0
  4 19  1  0  0  0  0
  5 11  1  0  0  0  0
  7 12  1  0  0  0  0
  7 20  1  0  0  0  0
  8 13  2  0  0  0  0
  8 21  1  0  0  0  0
  9 14  1  6  0  0  0
  9 22  1  0  0  0  0
  9 23  1  0  0  0  0
 10 15  1  6  0  0  0
 10 24  1  1  0  0  0
 11 25  1  1  0  0  0
 11 26  1  0  0  0  0
 11 27  1  6  0  0  0
 12 16  2  0  0  0  0
 12 28  1  0  0  0  0
 13 16  1  0  0  0  0
 13 29  1  0  0  0  0
 14 17  1  0  0  0  0
 14 30  1  6  0  0  0
 14 31  1  0  0  0  0
 15 17  1  6  0  0  0
 15 32  1  0  0  0  0
 15 33  1  0  0  0  0
 16 34  1  0  0  0  0
 17 35  1  0  0  0  0
 17 36  1  6  0  0  0
M  END
>  <Substance ID> (666)
666

>  <Mouse_Female_Canc> (666)
3

>  <SAL> (666)
1

>  <Rat_Male_Canc> (666)
1

>  <TD50_Rat> (666)
NP

>  <TD50_Mouse> (666)
100

>  <Rat_Female_Canc> (666)
1

>  <Canc> (666)
3

>  <MolWeight> (666)
269.81

>  <Mouse_Male_Canc> (666)
3

>  <Mouse_Male_NTP> (666)
SE

>  <ChemName> (666)
Methylphenidate Hydrochloride

>  <Rat_Male_NTP> (666)
NE

>  <Reference> (666)
NTP439

>  <Formula> (666)
C14H19NO2.HCl

>  <SMILES> (666)
O=C(O[C@@H3])[C@H](c1ccccc1)[C@@H]2[N@@H][C@@H2][C@H2][C@H2][C@@H2]2.[Cl]

>  <Rat_Female_NTP> (666)
NE

>  <CAS> (666)
298-59-9

>  <Mouse_Female_NTP> (666)
SE

>  <Synonyms> (666)
alpha-phenyl-2-piperidineacetic acid methyl ester hydrochloride; centedrin; methyl alpha-phenyl-2-piperidine-acetate hydrochloride; methylphenidylacetate hydrochloride; PMS-Methylphenidate; Ritalin hydrochloride.

$$$$
667
 

  7  6  0  0  0  0  0  0  0  0999 V2000
   22.4399  -45.2235    0.0008 C   0  0  0  0  0  0  0  0  0  0  0  0
   23.6819  -44.5048    0.0001 N   0  3  0  0  0  0  0  0  0  0  0  0
   24.8301  -45.1662   -0.0005 O   0  5  0  0  0  0  0  0  0  0  0  0
   23.6808  -43.3291    0.0000 O   0  0  0  0  0  0  0  0  0  0  0  0
   21.6789  -44.5748    0.0012 H   0  0  0  0  0  0  0  0  0  0  0  0
   22.3875  -45.7986    0.8173 H   0  0  0  0  0  0  0  0  0  0  0  0
   22.3866  -45.7987   -0.8155 H   0  0  0  0  0  0  0  0  0  0  0  0
  1  2  1  0  0  0  0
  2  3  1  0  0  0  0
  2  4  2  0  0  0  0
  1  5  1  0  0  0  0
  1  6  1  0  0  0  0
  1  7  1  0  0  0  0
M  END
>  <Substance ID> (667)
667

>  <Mouse_Female_Canc> (667)
3

>  <SAL> (667)
1

>  <Rat_Male_Canc> (667)
1

>  <TD50_Rat> (667)
ND

>  <TD50_Mouse> (667)
ND

>  <Rat_Female_Canc> (667)
3

>  <Canc> (667)
3

>  <MolWeight> (667)
61.04

>  <Mouse_Male_Canc> (667)
3

>  <Mouse_Male_NTP> (667)
CE

>  <ChemName> (667)
Nitromethane

>  <Rat_Male_NTP> (667)
NE

>  <Reference> (667)
NTP461

>  <Formula> (667)
C1H3NO2 

>  <SMILES> (667)
N(=O)(=O)C

>  <Rat_Female_NTP> (667)
CE

>  <CAS> (667)
75-52-5

>  <Mouse_Female_NTP> (667)
CE

>  <Synonyms> (667)
Nitrocarbol; NM.

$$$$
668
 

 72 73  0  0  0  0  0  0  0  0999 V2000
   42.6303  -77.1028    0.1510 C   0  0  0  0  0  0  0  0  0  0  0  0
   43.6233  -77.9333    0.4772 C   0  0  0  0  0  0  0  0  0  0  0  0
   45.3298  -76.2864   -0.0464 C   0  0  0  0  0  0  0  0  0  0  0  0
   44.2611  -75.3572   -0.4093 C   0  0  0  0  0  0  0  0  0  0  0  0
   45.0267  -77.5118    0.3747 C   0  0  0  0  0  0  0  0  0  0  0  0
   42.9855  -75.7346   -0.3198 C   0  0  0  0  0  0  0  0  0  0  0  0
   38.7375  -77.5833    0.2203 C   0  0  0  0  0  0  0  0  0  0  0  0
   37.4412  -76.7493   -0.0266 C   0  0  0  0  0  0  0  0  0  0  0  0
   36.2556  -77.5431    0.2099 O   0  0  0  0  0  0  0  0  0  0  0  0
   35.1015  -76.6629    0.2038 C   0  0  0  0  0  0  0  0  0  0  0  0
   33.7182  -77.3986    0.3169 C   0  0  0  0  0  0  0  0  0  0  0  0
   32.7269  -76.3454    0.3851 O   0  0  0  0  0  0  0  0  0  0  0  0
   31.3611  -76.7303    0.2030 C   0  0  0  0  0  0  0  0  0  0  0  0
   28.6253  -77.2713   -0.3034 C   0  0  0  0  0  0  0  0  0  0  0  0
   29.5269  -78.2776   -0.2846 C   0  0  0  0  0  0  0  0  0  0  0  0
   30.3568  -75.6546    0.2249 C   0  0  0  0  0  0  0  0  0  0  0  0
   30.9691  -77.9797   -0.0130 C   0  0  0  0  0  0  0  0  0  0  0  0
   29.0741  -75.9173   -0.0129 C   0  0  0  0  0  0  0  0  0  0  0  0
   24.1154  -78.1212    1.9901 C   0  0  0  0  0  0  0  0  0  0  0  0
   24.6064  -77.8932    0.5502 C   0  0  0  0  0  0  0  0  0  0  0  0
   26.2425  -77.7133    0.6214 C   0  0  0  0  0  0  0  0  0  0  0  0
   27.1658  -77.5149   -0.7089 C   0  0  0  0  0  0  0  0  0  0  0  0
   23.8538  -76.6351    0.0383 C   0  0  0  0  0  0  0  0  0  0  0  0
   24.1272  -79.1163   -0.2724 C   0  0  0  0  0  0  0  0  0  0  0  0
   26.7488  -76.2470   -1.4969 C   0  0  0  0  0  0  0  0  0  0  0  0
   27.1380  -78.7610   -1.6225 C   0  0  0  0  0  0  0  0  0  0  0  0
   39.9650  -76.7756   -0.0538 N   0  3  0  0  0  0  0  0  0  0  0  0
   39.9572  -76.4105   -1.4878 C   0  0  0  0  0  0  0  0  0  0  0  0
   39.9042  -75.5643    0.7945 C   0  0  0  0  0  0  0  0  0  0  0  0
   41.1624  -77.6442    0.2972 C   0  0  0  0  0  0  0  0  0  0  0  0
   43.4084  -78.8564    0.7961 H   0  0  0  0  0  0  0  0  0  0  0  0
   46.2860  -76.0019   -0.1145 H   0  0  0  0  0  0  0  0  0  0  0  0
   44.4874  -74.4359   -0.7256 H   0  0  0  0  0  0  0  0  0  0  0  0
   45.7572  -78.1483    0.6224 H   0  0  0  0  0  0  0  0  0  0  0  0
   42.2604  -75.0934   -0.5711 H   0  0  0  0  0  0  0  0  0  0  0  0
   38.7531  -77.8859    1.1733 H   0  0  0  0  0  0  0  0  0  0  0  0
   38.7313  -78.3807   -0.3831 H   0  0  0  0  0  0  0  0  0  0  0  0
   37.4363  -75.9635    0.5918 H   0  0  0  0  0  0  0  0  0  0  0  0
   37.4353  -76.4286   -0.9738 H   0  0  0  0  0  0  0  0  0  0  0  0
   35.1846  -76.0343    0.9771 H   0  0  0  0  0  0  0  0  0  0  0  0
   35.1098  -76.1438   -0.6508 H   0  0  0  0  0  0  0  0  0  0  0  0
   33.5618  -77.9746   -0.4855 H   0  0  0  0  0  0  0  0  0  0  0  0
   33.6879  -77.9615    1.1429 H   0  0  0  0  0  0  0  0  0  0  0  0
   29.2319  -79.2184   -0.4517 H   0  0  0  0  0  0  0  0  0  0  0  0
   30.6414  -74.7162    0.4205 H   0  0  0  0  0  0  0  0  0  0  0  0
   31.6377  -78.7231    0.0057 H   0  0  0  0  0  0  0  0  0  0  0  0
   28.4075  -75.1722    0.0083 H   0  0  0  0  0  0  0  0  0  0  0  0
   23.1220  -78.2355    1.9898 H   0  0  0  0  0  0  0  0  0  0  0  0
   24.3596  -77.3328    2.5548 H   0  0  0  0  0  0  0  0  0  0  0  0
   24.5450  -78.9437    2.3629 H   0  0  0  0  0  0  0  0  0  0  0  0
   26.4081  -76.9114    1.1954 H   0  0  0  0  0  0  0  0  0  0  0  0
   26.5910  -78.5303    1.0808 H   0  0  0  0  0  0  0  0  0  0  0  0
   24.1350  -76.4369   -0.9006 H   0  0  0  0  0  0  0  0  0  0  0  0
   24.0728  -75.8541    0.6232 H   0  0  0  0  0  0  0  0  0  0  0  0
   22.8682  -76.8030    0.0622 H   0  0  0  0  0  0  0  0  0  0  0  0
   24.4228  -79.0162   -1.2224 H   0  0  0  0  0  0  0  0  0  0  0  0
   23.1292  -79.1711   -0.2385 H   0  0  0  0  0  0  0  0  0  0  0  0
   24.5198  -79.9518    0.1121 H   0  0  0  0  0  0  0  0  0  0  0  0
   27.3296  -76.1502   -2.3051 H   0  0  0  0  0  0  0  0  0  0  0  0
   26.8536  -75.4417   -0.9133 H   0  0  0  0  0  0  0  0  0  0  0  0
   25.7937  -76.3299   -1.7815 H   0  0  0  0  0  0  0  0  0  0  0  0
   27.7140  -78.6002   -2.4240 H   0  0  0  0  0  0  0  0  0  0  0  0
   26.1990  -78.9377   -1.9175 H   0  0  0  0  0  0  0  0  0  0  0  0
   27.4831  -79.5525   -1.1180 H   0  0  0  0  0  0  0  0  0  0  0  0
   40.7703  -75.8680   -1.6986 H   0  0  0  0  0  0  0  0  0  0  0  0
   39.1376  -75.8749   -1.6915 H   0  0  0  0  0  0  0  0  0  0  0  0
   39.9584  -77.2417   -2.0439 H   0  0  0  0  0  0  0  0  0  0  0  0
   40.7152  -75.0022    0.6323 H   0  0  0  0  0  0  0  0  0  0  0  0
   39.8720  -75.8323    1.7574 H   0  0  0  0  0  0  0  0  0  0  0  0
   39.0842  -75.0387    0.5676 H   0  0  0  0  0  0  0  0  0  0  0  0
   41.0511  -77.9065    1.2558 H   0  0  0  0  0  0  0  0  0  0  0  0
   41.1015  -78.4580   -0.2808 H   0  0  0  0  0  0  0  0  0  0  0  0
  1  2  2  0  0  0  0
  3  4  1  0  0  0  0
  1  6  1  0  0  0  0
  2  5  1  0  0  0  0
  5  3  2  0  0  0  0
  4  6  2  0  0  0  0
  7  8  1  0  0  0  0
  8  9  1  0  0  0  0
  9 10  1  0  0  0  0
 10 11  1  0  0  0  0
 12 11  1  0  0  0  0
 12 13  1  0  0  0  0
 14 15  2  0  0  0  0
 13 16  1  0  0  0  0
 14 18  1  0  0  0  0
 15 17  1  0  0  0  0
 17 13  2  0  0  0  0
 16 18  2  0  0  0  0
 19 20  1  0  0  0  0
 20 21  1  0  0  0  0
 21 22  1  0  0  0  0
 20 23  1  0  0  0  0
 20 24  1  0  0  0  0
 22 25  1  0  0  0  0
 22 26  1  0  0  0  0
 22 14  1  0  0  0  0
  7 27  1  0  0  0  0
 27 28  1  0  0  0  0
 27 29  1  0  0  0  0
 27 30  1  0  0  0  0
 30  1  1  0  0  0  0
  2 31  1  0  0  0  0
  3 32  1  0  0  0  0
  4 33  1  0  0  0  0
  5 34  1  0  0  0  0
  6 35  1  0  0  0  0
  7 36  1  0  0  0  0
  7 37  1  0  0  0  0
  8 38  1  0  0  0  0
  8 39  1  0  0  0  0
 10 40  1  0  0  0  0
 10 41  1  0  0  0  0
 11 42  1  0  0  0  0
 11 43  1  0  0  0  0
 15 44  1  0  0  0  0
 16 45  1  0  0  0  0
 17 46  1  0  0  0  0
 18 47  1  0  0  0  0
 19 48  1  0  0  0  0
 19 49  1  0  0  0  0
 19 50  1  0  0  0  0
 21 51  1  0  0  0  0
 21 52  1  0  0  0  0
 23 53  1  0  0  0  0
 23 54  1  0  0  0  0
 23 55  1  0  0  0  0
 24 56  1  0  0  0  0
 24 57  1  0  0  0  0
 24 58  1  0  0  0  0
 25 59  1  0  0  0  0
 25 60  1  0  0  0  0
 25 61  1  0  0  0  0
 26 62  1  0  0  0  0
 26 63  1  0  0  0  0
 26 64  1  0  0  0  0
 28 65  1  0  0  0  0
 28 66  1  0  0  0  0
 28 67  1  0  0  0  0
 29 68  1  0  0  0  0
 29 69  1  0  0  0  0
 29 70  1  0  0  0  0
 30 71  1  0  0  0  0
 30 72  1  0  0  0  0
M  END
>  <Substance ID> (668)
668

>  <Mouse_Female_Canc> (668)
1

>  <SAL> (668)
1

>  <Rat_Male_Canc> (668)
1

>  <TD50_Rat> (668)
NP

>  <TD50_Mouse> (668)
NP

>  <Rat_Female_Canc> (668)
1

>  <Canc> (668)
1

>  <MolWeight> (668)
448.09

>  <Mouse_Male_Canc> (668)
1

>  <Mouse_Male_NTP> (668)
NE

>  <ChemName> (668)
Benzethonium Chloride

>  <Rat_Male_NTP> (668)
NE

>  <Reference> (668)
NTP438

>  <Formula> (668)
C27H42ClNO2 

>  <SMILES> (668)
O(c1ccc(cc1)C(C)(C)CC(C)(C)C)CCOCC[N+](Cc2ccccc2)(C)C.[Cl-]

>  <Rat_Female_NTP> (668)
NE

>  <CAS> (668)
121-54-0

>  <Mouse_Female_NTP> (668)
NE

>  <Synonyms> (668)
p-diisobutyl phenoxyethoxyethyl dimethyl benzylammonium chloride; p-tert-octylphenoxyethoxyethyldimethylbenzylammonium chloride; anti-germ 77; antiseptol; benzathonium chloride; benzethonium chloride 1622; Benzyldimethyl[2-[2-[4-(1,1,3,3-tetramethylbutyl)phenoxy]ethoxy]ethyl]ammonium chloride; benzyldimethyl-(p-(1,1,3,3-tetramethylbutyl)phenoxyethoxyethyl) ammonium chloride; Diapp; diisobutylphenoxyethoxyethyl dimethyl benzyl ammonium chloride; disilyn; BZT; hyamine; hyamine 1622; N,N-dimethyl-N-(2-(2-(4-(1,1,3,3-tetramethylbutyl)phenoxy)ethoxy)ethyl)-benzenemethanaminium chloride; Octylphenoxyethoxyethyl dimethyl benzyl ammonium chloride; phemeride; phemerol; phemerol chloride; phemersol chloride; phemithyn; polymine d; quatrachlor; solamin; Solanine.

$$$$
669
 

 36 37  0  0  0  0  0  0  0  0999 V2000
   14.7575  -27.4900    0.0260 C   0  0  0  0  0  0  0  0  0  1  0  0
   15.4971  -26.3738    0.1196 C   0  0  0  0  0  0  0  0  0  2  0  0
   16.9635  -26.4267    0.1066 C   0  0  0  0  0  0  0  0  0  3  0  0
   17.7025  -25.3209    0.2277 C   0  0  0  0  0  0  0  0  0  4  0  0
   19.2215  -25.2697    0.1989 C   0  0  0  0  0  0  0  0  0  5  0  0
   20.0379  -26.3225   -0.0455 C   0  0  0  0  0  0  0  0  0  6  0  0
   19.4835  -27.9666   -0.4022 S   0  0  0  0  0  0  0  0  0  7  0  0
   18.6508  -27.9089   -1.6669 O   0  0  0  0  0  0  0  0  0  8  0  0
   18.6605  -28.5165    0.7496 O   0  0  0  0  0  0  0  0  0  9  0  0
   20.8200  -28.9742   -0.6662 O   0  5  0  0  0  0  0  0  0 10  0  0
   21.4898  -26.1297   -0.0470 C   0  0  0  0  0  0  0  0  0 11  0  0
   22.0258  -24.9377    0.1824 C   0  0  0  0  0  0  0  0  0 12  0  0
   21.1634  -23.7969    0.4417 C   0  0  0  0  0  0  0  0  0 13  0  0
   19.8401  -23.9518    0.4514 C   0  0  0  0  0  0  0  0  0 14  0  0
   23.4148  -24.7857    0.1728 N   0  0  0  0  0  0  0  0  0 15  0  0
   14.8281  -25.0721    0.2335 C   0  0  0  0  0  0  0  0  0 16  0  0
   13.4980  -24.9991    0.2405 C   0  0  0  0  0  0  0  0  0 17  0  0
   12.7016  -26.2135    0.1389 C   0  0  0  0  0  0  0  0  0 18  0  0
   13.3013  -27.3943    0.0379 C   0  0  0  0  0  0  0  0  0 19  0  0
   11.3100  -26.1402    0.1475 N   0  0  0  0  0  0  0  0  0 20  0  0
   15.4751  -29.1164   -0.1085 S   0  0  0  0  0  0  0  0  0 21  0  0
   14.3881  -30.1101   -0.4704 O   0  0  0  0  0  0  0  0  0 22  0  0
   16.0864  -29.5050    1.2240 O   0  0  0  0  0  0  0  0  0 23  0  0
   16.6787  -29.1633   -1.2888 O   0  5  0  0  0  0  0  0  0 24  0  0
   17.4198  -27.3107    0.0048 H   0  0  0  0  0  0  0  0  0  0  0  0
   17.2164  -24.4552    0.3471 H   0  0  0  0  0  0  0  0  0  0  0  0
   22.0884  -26.9109   -0.2242 H   0  0  0  0  0  0  0  0  0  0  0  0
   21.5630  -22.8963    0.6127 H   0  0  0  0  0  0  0  0  0  0  0  0
   19.2547  -23.1616    0.6330 H   0  0  0  0  0  0  0  0  0  0  0  0
   23.8207  -23.8882    0.3454 H   0  0  0  0  0  0  0  0  0  0  0  0
   24.0029  -25.5743   -0.0066 H   0  0  0  0  0  0  0  0  0  0  0  0
   15.3730  -24.2368    0.3063 H   0  0  0  0  0  0  0  0  0  0  0  0
   13.0465  -24.1100    0.3155 H   0  0  0  0  0  0  0  0  0  0  0  0
   12.7497  -28.2257   -0.0307 H   0  0  0  0  0  0  0  0  0  0  0  0
   10.7648  -26.9756    0.0776 H   0  0  0  0  0  0  0  0  0  0  0  0
   10.8565  -25.2522    0.2235 H   0  0  0  0  0  0  0  0  0  0  0  0
  1  2  2  0  0  0  0
  1 19  1  0  0  0  0
  1 21  1  0  0  0  0
  2  3  1  0  0  0  0
  2 16  1  0  0  0  0
  3  4  2  0  0  0  0
  4  5  1  0  0  0  0
  5  6  2  0  0  0  0
  5 14  1  0  0  0  0
  6  7  1  0  0  0  0
  6 11  1  0  0  0  0
  7  8  2  0  0  0  0
  7  9  2  0  0  0  0
  7 10  1  0  0  0  0
 11 12  2  0  0  0  0
 12 13  1  0  0  0  0
 12 15  1  0  0  0  0
 13 14  2  0  0  0  0
 16 17  2  0  0  0  0
 17 18  1  0  0  0  0
 18 19  2  0  0  0  0
 18 20  1  0  0  0  0
 21 22  2  0  0  0  0
 21 23  2  0  0  0  0
 21 24  1  0  0  0  0
  3 25  1  0  0  0  0
  4 26  1  0  0  0  0
 11 27  1  0  0  0  0
 13 28  1  0  0  0  0
 14 29  1  0  0  0  0
 15 30  1  0  0  0  0
 15 31  1  0  0  0  0
 16 32  1  0  0  0  0
 17 33  1  0  0  0  0
 19 34  1  0  0  0  0
 20 35  1  0  0  0  0
 20 36  1  0  0  0  0
M  END
>  <Substance ID> (669)
669

>  <Mouse_Female_Canc> (669)
1

>  <SAL> (669)
1

>  <Rat_Male_Canc> (669)
1

>  <TD50_Rat> (669)
NP

>  <TD50_Mouse> (669)
NP

>  <Rat_Female_Canc> (669)
1

>  <Canc> (669)
1

>  <MolWeight> (669)
414.37

>  <Mouse_Male_Canc> (669)
1

>  <Mouse_Male_NTP> (669)
NE

>  <ChemName> (669)
4,4'-Diamino-2,2'-stilbenedisulfonic acid

>  <Rat_Male_NTP> (669)
NE

>  <Reference> (669)
NTP412

>  <Formula> (669)
C14H12N2O6S2Na2

>  <SMILES> (669)
[Na+].C1(=C(/C=C/C2=C(S(=O)(=O)[O-])C=C(C=C2)N)C=CC(=C1)N)S(=O)(=O)[O-].[Na+]

>  <Rat_Female_NTP> (669)
NE

>  <CAS> (669)
7336-20-1

>  <Mouse_Female_NTP> (669)
NE

>  <Synonyms> (669)
2,2'-(1,2-Ethenediyl)bis[5-aminobenzenesulfonic acid] disodium salt; 4,4'-Diamino-2,2'-Stilbenedisulfonic Acid Disodium Salt; disodium disodium 4,4'-diaminostilbene-2,2'-disulfonate.

$$$$
670
 

  3  2  0  0  0  0  0  0  0  0999 V2000
   42.7084 -101.1410    0.0001 N   0  5  0  0  0  0  0  0  0  0  0  0
   43.8868 -101.1409   -0.0002 N   0  3  0  0  0  0  0  0  0  0  0  0
   45.0653 -101.1407   -0.0004 N   0  5  0  0  0  0  0  0  0  0  0  0
  1  2  2  0  0  0  0
  2  3  2  0  0  0  0
M  END
>  <Substance ID> (670)
670

>  <Mouse_Female_Canc> (670)
ND

>  <SAL> (670)
3

>  <Rat_Male_Canc> (670)
1

>  <TD50_Rat> (670)
NP

>  <TD50_Mouse> (670)
ND

>  <Rat_Female_Canc> (670)
1

>  <Canc> (670)
1

>  <MolWeight> (670)
65.01

>  <Mouse_Male_Canc> (670)
ND

>  <Mouse_Male_NTP> (670)
ND

>  <ChemName> (670)
Sodium azide 

>  <Rat_Male_NTP> (670)
NE

>  <Reference> (670)
NTP389

>  <Formula> (670)
N3Na

>  <SMILES> (670)
[Na+].[N-]=N#N

>  <Rat_Female_NTP> (670)
NE

>  <CAS> (670)
26628-22-8

>  <Mouse_Female_NTP> (670)
ND

>  <Synonyms> (670)
Azium; Smite; Hydrazoic acid, sodium salt; U-3886.

$$$$
671
 

  6  5  0  0  0  0  0  0  0  0999 V2000
    3.5814   -3.0972   -0.0003 N   0  0  0  0  0  0  0  0  0  0  0  0
    4.6840   -2.7669   -0.0005 C   0  0  0  0  0  0  0  0  0  0  0  0
    6.0855   -2.3472   -0.0008 C   0  0  0  0  0  0  0  0  0  0  0  0
    6.4051   -2.2501    0.9417 H   0  0  0  0  0  0  0  0  0  0  0  0
    6.1712   -1.4700   -0.4733 H   0  0  0  0  0  0  0  0  0  0  0  0
    6.6396   -3.0342   -0.4710 H   0  0  0  0  0  0  0  0  0  0  0  0
  1  2  3  0  0  0  0
  2  3  1  0  0  0  0
  3  4  1  0  0  0  0
  3  5  1  0  0  0  0
  3  6  1  0  0  0  0
M  END
>  <Substance ID> (671)
671

>  <Mouse_Female_Canc> (671)
1

>  <SAL> (671)
1

>  <Rat_Male_Canc> (671)
2

>  <TD50_Rat> (671)
NP

>  <TD50_Mouse> (671)
NP

>  <Rat_Female_Canc> (671)
1

>  <Canc> (671)
2

>  <MolWeight> (671)
41.05

>  <Mouse_Male_Canc> (671)
1

>  <Mouse_Male_NTP> (671)
NE

>  <ChemName> (671)
Acetonitrile 

>  <Rat_Male_NTP> (671)
EE

>  <Reference> (671)
NTP447

>  <Formula> (671)
C2H3N

>  <SMILES> (671)
CC#N

>  <Rat_Female_NTP> (671)
NE

>  <CAS> (671)
75-05-8

>  <Mouse_Female_NTP> (671)
NE

>  <Synonyms> (671)
AN; Cyanomethane; Ethane nitrile; ethanonitrile; Ethyl nitrile; methanecarbonitrile; Methyl cyanide.

$$$$
672
 

 38 41  0  0  0  0  0  0  0  0999 V2000
    2.8452  -14.2793   -0.8467 C   0  0  0  0  0  0  0  0  0  0  0  0
    2.9470  -15.3192   -0.0188 C   0  0  0  0  0  0  0  0  0  0  0  0
    4.2652  -15.6700    0.5138 C   0  0  0  0  0  0  0  0  0  0  0  0
    4.0460  -13.4970   -1.1797 C   0  0  0  0  0  0  0  0  0  0  0  0
    5.2342  -13.8171   -0.6312 C   0  0  0  0  0  0  0  0  0  0  0  0
    5.2994  -14.9107    0.1747 C   0  0  0  0  0  0  0  0  0  0  0  0
    6.5235  -15.0650    0.5181 C   0  0  0  0  0  0  0  0  0  0  0  0
    7.3175  -14.0617   -0.0200 O   0  0  0  0  0  0  0  0  0  0  0  0
    6.5964  -12.9671   -0.9352 C   0  0  0  0  0  0  0  0  0  0  0  0
    5.8362  -11.6882   -0.4430 C   0  0  0  0  0  0  0  0  0  0  0  0
    8.0161  -12.4144   -0.4058 C   0  0  0  0  0  0  0  0  0  0  0  0
    5.7689  -10.6474   -1.2828 C   0  0  0  0  0  0  0  0  0  0  0  0
    4.5194   -9.3222    0.3118 C   0  0  0  0  0  0  0  0  0  0  0  0
    4.5543  -10.4457    1.2538 C   0  0  0  0  0  0  0  0  0  0  0  0
    5.0886   -9.4245   -0.8879 C   0  0  0  0  0  0  0  0  0  0  0  0
    5.1696  -11.5743    0.9195 C   0  0  0  0  0  0  0  0  0  0  0  0
    9.1385  -12.8695   -0.9680 C   0  0  0  0  0  0  0  0  0  0  0  0
   10.5402  -11.3497    0.3478 C   0  0  0  0  0  0  0  0  0  0  0  0
    9.3422  -10.8577    0.9859 C   0  0  0  0  0  0  0  0  0  0  0  0
   10.4551  -12.3151   -0.5694 C   0  0  0  0  0  0  0  0  0  0  0  0
    8.1607  -11.3555    0.6441 C   0  0  0  0  0  0  0  0  0  0  0  0
    3.8888   -8.1407    0.6715 O   0  0  0  0  0  0  0  0  0  0  0  0
   11.7765  -10.8091    0.6961 O   0  0  0  0  0  0  0  0  0  0  0  0
    6.9369  -15.9960    1.2218 O   0  0  0  0  0  0  0  0  0  0  0  0
    1.9589  -14.0327   -1.2386 H   0  0  0  0  0  0  0  0  0  0  0  0
    2.1381  -15.8499    0.2340 H   0  0  0  0  0  0  0  0  0  0  0  0
    4.3827  -16.4596    1.1161 H   0  0  0  0  0  0  0  0  0  0  0  0
    3.9802  -12.7267   -1.8140 H   0  0  0  0  0  0  0  0  0  0  0  0
    6.1894  -10.7116   -2.1878 H   0  0  0  0  0  0  0  0  0  0  0  0
    4.1148  -10.3620    2.1481 H   0  0  0  0  0  0  0  0  0  0  0  0
    5.0477   -8.6531   -1.5230 H   0  0  0  0  0  0  0  0  0  0  0  0
    5.1944  -12.3431    1.5585 H   0  0  0  0  0  0  0  0  0  0  0  0
    9.0910  -13.5881   -1.6618 H   0  0  0  0  0  0  0  0  0  0  0  0
    9.4027  -10.1438    1.6835 H   0  0  0  0  0  0  0  0  0  0  0  0
   11.2890  -12.6690   -0.9930 H   0  0  0  0  0  0  0  0  0  0  0  0
    7.3404  -11.0128    1.1019 H   0  0  0  0  0  0  0  0  0  0  0  0
    3.9566   -7.4841   -0.0797 H   0  0  0  0  0  0  0  0  0  0  0  0
   12.4974  -11.2565    0.1669 H   0  0  0  0  0  0  0  0  0  0  0  0
  1  2  2  0  0  0  0
  1  4  1  0  0  0  0
  2  3  1  0  0  0  0
  3  6  2  0  0  0  0
  5  4  2  0  0  0  0
  5  6  1  0  0  0  0
  6  7  1  0  0  0  0
  7  8  1  0  0  0  0
  8  9  1  0  0  0  0
  9  5  1  0  0  0  0
  9 10  1  0  0  0  0
  9 11  1  0  0  0  0
 10 12  2  0  0  0  0
 13 14  1  0  0  0  0
 10 16  1  0  0  0  0
 12 15  1  0  0  0  0
 15 13  2  0  0  0  0
 14 16  2  0  0  0  0
 11 17  2  0  0  0  0
 18 19  1  0  0  0  0
 11 21  1  0  0  0  0
 17 20  1  0  0  0  0
 20 18  2  0  0  0  0
 19 21  2  0  0  0  0
 13 22  1  0  0  0  0
 18 23  1  0  0  0  0
  7 24  2  0  0  0  0
  1 25  1  0  0  0  0
  2 26  1  0  0  0  0
  3 27  1  0  0  0  0
  4 28  1  0  0  0  0
 12 29  1  0  0  0  0
 14 30  1  0  0  0  0
 15 31  1  0  0  0  0
 16 32  1  0  0  0  0
 17 33  1  0  0  0  0
 19 34  1  0  0  0  0
 20 35  1  0  0  0  0
 21 36  1  0  0  0  0
 22 37  1  0  0  0  0
 23 38  1  0  0  0  0
M  END
>  <Substance ID> (672)
672

>  <Mouse_Female_Canc> (672)
3

>  <SAL> (672)
1

>  <Rat_Male_Canc> (672)
3

>  <TD50_Rat> (672)
902

>  <TD50_Mouse> (672)
1170

>  <Rat_Female_Canc> (672)
3

>  <Canc> (672)
3

>  <MolWeight> (672)
318.33

>  <Mouse_Male_Canc> (672)
3

>  <Mouse_Male_NTP> (672)
CE

>  <ChemName> (672)
Phenolphthalein

>  <Rat_Male_NTP> (672)
CE

>  <Reference> (672)
NTP465

>  <Formula> (672)
C20H14O4

>  <SMILES> (672)
O=C1OC(C2=C1C=CC=C2)(C3=CC=C(C=C3)O)C4=CC=C(C=C4)O

>  <Rat_Female_NTP> (672)
SE

>  <CAS> (672)
77-09-8

>  <Mouse_Female_NTP> (672)
CE

>  <Synonyms> (672)
2-[Bis (4-hydroxyphenyl)methyl]benzoic acid; 3,3-bis(4-hydroxyphenyl)-1(3H)-isobenzofuranone; 3,3-bis(p-hydroxyphenyl)phthalide; Alophen; Espotabs; Ex-Lax; Feen-a-mint; feen-a-mint gum; Figsen; Laxettes; Phenolax.

$$$$
673
 

 14 14  0  0  0  0  0  0  0  0999 V2000
    2.1294  -24.0655   -0.0003 C   0  0  0  0  0  0  0  0  0  0  0  0
    2.1302  -25.3969   -0.0010 C   0  0  0  0  0  0  0  0  0  0  0  0
    4.5503  -25.4620    0.0003 C   0  0  0  0  0  0  0  0  0  0  0  0
    4.5504  -23.9988   -0.0001 C   0  0  0  0  0  0  0  0  0  0  0  0
    3.3972  -26.1278    0.0000 C   0  0  0  0  0  0  0  0  0  0  0  0
    3.3969  -23.3330    0.0002 C   0  0  0  0  0  0  0  0  0  0  0  0
    3.3964  -21.9420   -0.0002 O   0  0  0  0  0  0  0  0  0  0  0  0
    3.3976  -27.5188    0.0005 O   0  0  0  0  0  0  0  0  0  0  0  0
    1.2631  -23.5659   -0.0002 H   0  0  0  0  0  0  0  0  0  0  0  0
    1.2644  -25.8973   -0.0021 H   0  0  0  0  0  0  0  0  0  0  0  0
    5.4163  -25.9620    0.0008 H   0  0  0  0  0  0  0  0  0  0  0  0
    5.4164  -23.4987   -0.0007 H   0  0  0  0  0  0  0  0  0  0  0  0
    4.3388  -21.6078    0.0003 H   0  0  0  0  0  0  0  0  0  0  0  0
    4.3402  -27.8523    0.0012 H   0  0  0  0  0  0  0  0  0  0  0  0
  1  2  2  0  0  0  0
  3  4  1  0  0  0  0
  1  6  1  0  0  0  0
  2  5  1  0  0  0  0
  5  3  2  0  0  0  0
  4  6  2  0  0  0  0
  6  7  1  0  0  0  0
  5  8  1  0  0  0  0
  1  9  1  0  0  0  0
  2 10  1  0  0  0  0
  3 11  1  0  0  0  0
  4 12  1  0  0  0  0
  7 13  1  0  0  0  0
  8 14  1  0  0  0  0
M  END
>  <Substance ID> (673)
673

>  <Mouse_Female_Canc> (673)
3

>  <SAL> (673)
1

>  <Rat_Male_Canc> (673)
3

>  <TD50_Rat> (673)
82.8

>  <TD50_Mouse> (673)
225

>  <Rat_Female_Canc> (673)
3

>  <Canc> (673)
3

>  <MolWeight> (673)
110.11

>  <Mouse_Male_Canc> (673)
1

>  <Mouse_Male_NTP> (673)
NE

>  <ChemName> (673)
Hydroquinone

>  <Rat_Male_NTP> (673)
SE

>  <Reference> (673)
NTP366

>  <Formula> (673)
C6H6O2

>  <SMILES> (673)
OC1=CC=C(C=C1)O

>  <Rat_Female_NTP> (673)
SE

>  <CAS> (673)
123-31-9

>  <Mouse_Female_NTP> (673)
SE

>  <Synonyms> (673)
1,4-Benzendil; 1,4-benzenediol; Hydroquinol; HYDROQUINONE BAKER; Hydroquinone; quinnone; Quinol; Tecquinol; tenox hq; tequinol; 1,4-Dihydroxybenzene; 1,4-Hydroxybenzene; p Benzendiol; p-benzenediol; p-Dihydroxybenzene; p-dioxobenzene; p-Diphenol; p-Hydroquinone; para-Hydroxyphenol; alpha-hydroquinone; Aida; arctuvin; Benzene-1,4-diol; benzohydroquinone; Benzoquinol; Dihydroquinone; Dihydroxybenzene; Black and White Bleaching Cream; beta-quinol; eldopaque; Eldoquin; Elopaque; Hydrochinon; hydrokinone.

$$$$
674
  

  2  0  0  0  0  0  0  0  0  0999 V2000
   14.5497   -9.9695   -0.0000 Na  0  3  0  0  0  0  0  0  0  0  0  0
   18.0700  -10.2707    0.0000 F   0  5  0  0  0  0  0  0  0  0  0  0
M  END
>  <Substance ID> (674)
674

>  <Mouse_Female_Canc> (674)
1

>  <SAL> (674)
1

>  <Rat_Male_Canc> (674)
2

>  <TD50_Rat> (674)
NP

>  <TD50_Mouse> (674)
NP

>  <Rat_Female_Canc> (674)
1

>  <Canc> (674)
2

>  <MolWeight> (674)
41.99

>  <Mouse_Male_Canc> (674)
1

>  <Mouse_Male_NTP> (674)
NE

>  <ChemName> (674)
Sodium fluoride

>  <Rat_Male_NTP> (674)
EE

>  <Reference> (674)
NTP393

>  <Formula> (674)
FNa

>  <SMILES> (674)
[F-].[Na+]

>  <Rat_Female_NTP> (674)
NE

>  <CAS> (674)
7681-49-4

>  <Mouse_Female_NTP> (674)
NE

>  <Synonyms> (674)
antibulit; Disodium difluoride; fungol b; Gel II; gelution; Gleem; iradicav; karidium; karigel; kari-rinse; lea-cov; lemoflur; Les-cav; luride; luride lozi-tabs; luride-sf; NaF; nafeen; nafpak; na frinse; nufluor; ossalin; Ossin; osteofluor; pediaflor; pedident; pennwhite; pergantene; phos-flur; point two; predent; rafluor; rescue squad; Roach salt; alcoa sodium fluoride; SODIUM FLUORIDE, 99.9%; sodium fluoride cyclic dimer; sodium hydrofluoride; sodium monofluoride; So-flo; stay-flo; studafluor; super-dent; t-fluoride; thera-flur; thera-flur-n; trisodium trifluoride; Villiaumite; zymafluor; cavi-trol; chemifluor; Credo; duraphat; f1-tabs; fda 0101; Floridine; Florocid; flozenges; fluor-o-kote; fluoral; fluorocid; fluorident; fluorigard; fluorineed; fluorinse; fluoritab; fluorol; fluoros; Flura; flura-gel; flura-loz; flurcare; flursol.

$$$$
675
  

  0  0  0  0  0  0  0  0  0  0999 V2000
M  END
>  <Substance ID> (675)
675

>  <Mouse_Female_Canc> (675)
1

>  <SAL> (675)
1

>  <Rat_Male_Canc> (675)
2

>  <TD50_Rat> (675)
NP

>  <TD50_Mouse> (675)
NP

>  <Rat_Female_Canc> (675)
1

>  <Canc> (675)
2

>  <MolWeight> (675)
1308

>  <Mouse_Male_Canc> (675)
1

>  <Mouse_Male_NTP> (675)
NE

>  <ChemName> (675)
Polysorbate 80

>  <Rat_Male_NTP> (675)
EE

>  <Reference> (675)
NTP415

>  <Formula> (675)
C64H124O26

>  <SMILES> (675)
Unspecified 

>  <Rat_Female_NTP> (675)
NE

>  <CAS> (675)
9005-65-6

>  <Mouse_Female_NTP> (675)
NE

>  <Synonyms> (675)
Armotan pmo-20; capmul poe-o; Sorethytan (20) mono-oleate; Sorlate; Tween 80; Tween(R) 80; (x)-sorbitan mono-9-octadecenoate poly(oxy-1,2-ethanediyl) derivs; drewmulse poe-smo; emsorb 6900; glycosperse 0-20; glycosperse 0-20 veg; glycosperse 0-20x; liposorb 0-20; Olothorb; PEG-6 Sorbitan Oleate; POE (20) sorbitan monooleate; POE (5) sorbitan monooleate; POE(6) Sorbitan Monooleate; Polyethylene oxide sorbitan mono-oleate; Polyoxyethylene (20) sorbitan monooleate; polyoxyethylene (5) sorbitan monooleate; POLYOXYETHYLENESORBITAN MONOOLEATE (TWEEN 80); Polyoxyethylene Sorbitan Monooleate; polysorbate 80 b.p.c.; protasorb o-20; sorbimacrogol oleate 300; Sorbitan, mono-9-octadecanoate, poly(oxy-1,2-ethanediyl) derivs., (Z)-; Sorbitan, mono-9-octadecenoate, poly(oxy-1,2-ethanediyl) derivs., (Z)-; Sorbitan mono-oleate polyoxyethylene; sorbitan, monooleate polyoxyethylene deriv..

$$$$
676
  

 38 38  0  0  0  0  0  0  0  0999 V2000
    7.1442  -47.1553   -0.0473 S   0  0  0  0  0  0  0  0  0  0  0  0
    5.7471  -46.1648    0.3660 N   0  0  0  0  0  0  0  0  0  0  0  0
    4.5727  -47.1138    0.3172 C   0  0  0  0  0  0  0  0  0  0  0  0
    3.2900  -46.6228    1.0262 C   0  0  0  0  0  0  0  0  0  0  0  0
    2.1595  -47.6442    0.8019 C   0  0  0  0  0  0  0  0  0  0  0  0
    8.7251  -46.2941    0.0039 C   0  0  0  0  0  0  0  0  0  0  0  0
    9.8473  -46.9993   -0.1415 C   0  0  0  0  0  0  0  0  0  0  0  0
   11.2184  -45.0027    0.0074 C   0  0  0  0  0  0  0  0  0  0  0  0
    9.9955  -44.2264    0.1792 C   0  0  0  0  0  0  0  0  0  0  0  0
   11.1519  -46.3251   -0.1362 C   0  0  0  0  0  0  0  0  0  0  0  0
    8.8142  -44.8374    0.1840 C   0  0  0  0  0  0  0  0  0  0  0  0
   12.5098  -44.3217   -0.0101 C   0  0  0  0  0  0  0  0  0  0  0  0
   13.5526  -44.9723   -0.1424 O   0  0  0  0  0  0  0  0  0  0  0  0
   12.5639  -42.9366    0.1133 O   0  0  0  0  0  0  0  0  0  0  0  0
    6.9584  -47.7150   -1.4437 O   0  0  0  0  0  0  0  0  0  0  0  0
    7.2238  -48.3329    0.9050 O   0  0  0  0  0  0  0  0  0  0  0  0
    5.6803  -44.9942   -0.6263 C   0  0  0  0  0  0  0  0  0  0  0  0
    4.7189  -43.7914   -0.3128 C   0  0  0  0  0  0  0  0  0  0  0  0
    3.3584  -43.9003   -1.0428 C   0  0  0  0  0  0  0  0  0  0  0  0
    4.3497  -47.2786   -0.6436 H   0  0  0  0  0  0  0  0  0  0  0  0
    4.8526  -47.9723    0.7469 H   0  0  0  0  0  0  0  0  0  0  0  0
    3.4655  -46.5291    2.0062 H   0  0  0  0  0  0  0  0  0  0  0  0
    3.0188  -45.7370    0.6495 H   0  0  0  0  0  0  0  0  0  0  0  0
    1.3286  -47.3284    1.2599 H   0  0  0  0  0  0  0  0  0  0  0  0
    2.4307  -48.5302    1.1782 H   0  0  0  0  0  0  0  0  0  0  0  0
    1.9842  -47.7383   -0.1781 H   0  0  0  0  0  0  0  0  0  0  0  0
    9.8003  -47.9918   -0.2546 H   0  0  0  0  0  0  0  0  0  0  0  0
   10.0453  -43.2342    0.2933 H   0  0  0  0  0  0  0  0  0  0  0  0
   11.9908  -46.8592   -0.2406 H   0  0  0  0  0  0  0  0  0  0  0  0
    7.9794  -44.3016    0.3113 H   0  0  0  0  0  0  0  0  0  0  0  0
   13.5170  -42.6356    0.0818 H   0  0  0  0  0  0  0  0  0  0  0  0
    6.6045  -44.6198   -0.7020 H   0  0  0  0  0  0  0  0  0  0  0  0
    5.4001  -45.3723   -1.5086 H   0  0  0  0  0  0  0  0  0  0  0  0
    4.5508  -43.7662    0.6727 H   0  0  0  0  0  0  0  0  0  0  0  0
    5.1662  -42.9433   -0.5969 H   0  0  0  0  0  0  0  0  0  0  0  0
    2.7894  -43.1123   -0.8079 H   0  0  0  0  0  0  0  0  0  0  0  0
    2.8951  -44.7409   -0.7619 H   0  0  0  0  0  0  0  0  0  0  0  0
    3.5103  -43.9183   -2.0311 H   0  0  0  0  0  0  0  0  0  0  0  0
  1  2  1  0  0  0  0
  2  3  1  0  0  0  0
  3  4  1  0  0  0  0
  4  5  1  0  0  0  0
  1  6  1  0  0  0  0
  6  7  2  0  0  0  0
  8  9  1  0  0  0  0
  6 11  1  0  0  0  0
  7 10  1  0  0  0  0
 10  8  2  0  0  0  0
  9 11  2  0  0  0  0
  8 12  1  0  0  0  0
 12 13  2  0  0  0  0
 12 14  1  0  0  0  0
  1 15  2  0  0  0  0
  1 16  2  0  0  0  0
  2 17  1  0  0  0  0
 17 18  1  0  0  0  0
 18 19  1  0  0  0  0
  3 20  1  0  0  0  0
  3 21  1  0  0  0  0
  4 22  1  0  0  0  0
  4 23  1  0  0  0  0
  5 24  1  0  0  0  0
  5 25  1  0  0  0  0
  5 26  1  0  0  0  0
  7 27  1  0  0  0  0
  9 28  1  0  0  0  0
 10 29  1  0  0  0  0
 11 30  1  0  0  0  0
 14 31  1  0  0  0  0
 17 32  1  0  0  0  0
 17 33  1  0  0  0  0
 18 34  1  0  0  0  0
 18 35  1  0  0  0  0
 19 36  1  0  0  0  0
 19 37  1  0  0  0  0
 19 38  1  0  0  0  0
M  END
>  <Substance ID> (676)
676

>  <Mouse_Female_Canc> (676)
3

>  <SAL> (676)
1

>  <Rat_Male_Canc> (676)
1

>  <TD50_Rat> (676)
NP

>  <TD50_Mouse> (676)
540

>  <Rat_Female_Canc> (676)
1

>  <Canc> (676)
3

>  <MolWeight> (676)
285.36

>  <Mouse_Male_Canc> (676)
1

>  <Mouse_Male_NTP> (676)
NE

>  <ChemName> (676)
Probenecid

>  <Rat_Male_NTP> (676)
NE

>  <Reference> (676)
NTP395

>  <Formula> (676)
C13H19NO4S

>  <SMILES> (676)
O=S(=O)(C1=CC=C(C=C1)C(=O)O)N(CCC)CCC

>  <Rat_Female_NTP> (676)
NE

>  <CAS> (676)
57-66-9

>  <Mouse_Female_NTP> (676)
SE

>  <Synonyms> (676)
Parabenem; 4-((Dipropylamino)sulfonyl)benzoic acid; Urocid; p-(Dipropylsulfamoyl)benzoic acid; p-(dipropylsulfamyl)benzoic acid; apurina; Bencid; benecid; Benemid; Benuryl; Col-BENEMID; ColBenemid (component of); ethamide; Panuric; Polycillin-PRB (component of); Probalan; Probecid; Proben; probenecid acid; probenemid; Probenid; prolongine; Sulprin; synergid r; tubophan; uricosid.

$$$$
677
 

 26 26  0  0  0  0  0  0  0  0999 V2000
    2.9287  -55.6235    0.2663 C   0  0  0  0  0  0  0  0  0  0  0  0
    2.8930  -56.9513    0.2948 C   0  0  0  0  0  0  0  0  0  0  0  0
    5.2815  -57.0757   -0.0030 C   0  0  0  0  0  0  0  0  0  0  0  0
    5.3465  -55.5997   -0.0400 C   0  0  0  0  0  0  0  0  0  0  0  0
    4.1213  -57.7092    0.1572 C   0  0  0  0  0  0  0  0  0  0  0  0
    4.1951  -54.9046    0.0951 C   0  0  0  0  0  0  0  0  0  0  0  0
    4.1311  -53.5167    0.0869 O   0  0  0  0  0  0  0  0  0  0  0  0
    4.0824  -59.0988    0.1931 O   0  0  0  0  0  0  0  0  0  0  0  0
    6.7622  -54.9725   -0.2273 C   0  0  0  0  0  0  0  0  0  0  0  0
    6.8414  -53.4492   -0.4833 C   0  0  0  0  0  0  0  0  0  0  0  0
    7.5807  -55.3030    1.0340 C   0  0  0  0  0  0  0  0  0  0  0  0
    7.4675  -55.7173   -1.3754 C   0  0  0  0  0  0  0  0  0  0  0  0
    2.0784  -55.1062    0.3631 H   0  0  0  0  0  0  0  0  0  0  0  0
    2.0210  -57.4269    0.4109 H   0  0  0  0  0  0  0  0  0  0  0  0
    6.1228  -57.6075   -0.0999 H   0  0  0  0  0  0  0  0  0  0  0  0
    5.0496  -53.1409   -0.0356 H   0  0  0  0  0  0  0  0  0  0  0  0
    5.0080  -59.4615    0.0848 H   0  0  0  0  0  0  0  0  0  0  0  0
    7.7982  -53.1770   -0.5849 H   0  0  0  0  0  0  0  0  0  0  0  0
    6.4362  -52.9595    0.2888 H   0  0  0  0  0  0  0  0  0  0  0  0
    6.3409  -53.2247   -1.3195 H   0  0  0  0  0  0  0  0  0  0  0  0
    8.4981  -54.9145    0.9479 H   0  0  0  0  0  0  0  0  0  0  0  0
    7.6479  -56.2953    1.1378 H   0  0  0  0  0  0  0  0  0  0  0  0
    7.1285  -54.9141    1.8367 H   0  0  0  0  0  0  0  0  0  0  0  0
    8.3793  -55.3308   -1.5135 H   0  0  0  0  0  0  0  0  0  0  0  0
    6.9334  -55.6186   -2.2151 H   0  0  0  0  0  0  0  0  0  0  0  0
    7.5484  -56.6869   -1.1443 H   0  0  0  0  0  0  0  0  0  0  0  0
  1  2  2  0  0  0  0
  3  4  1  0  0  0  0
  1  6  1  0  0  0  0
  2  5  1  0  0  0  0
  5  3  2  0  0  0  0
  4  6  2  0  0  0  0
  6  7  1  0  0  0  0
  5  8  1  0  0  0  0
  4  9  1  0  0  0  0
  9 10  1  0  0  0  0
  9 11  1  0  0  0  0
  9 12  1  0  0  0  0
  1 13  1  0  0  0  0
  2 14  1  0  0  0  0
  3 15  1  0  0  0  0
  7 16  1  0  0  0  0
  8 17  1  0  0  0  0
 10 18  1  0  0  0  0
 10 19  1  0  0  0  0
 10 20  1  0  0  0  0
 11 21  1  0  0  0  0
 11 22  1  0  0  0  0
 11 23  1  0  0  0  0
 12 24  1  0  0  0  0
 12 25  1  0  0  0  0
 12 26  1  0  0  0  0
M  END
>  <Substance ID> (677)
677

>  <Mouse_Female_Canc> (677)
1

>  <SAL> (677)
1

>  <Rat_Male_Canc> (677)
1

>  <TD50_Rat> (677)
NP

>  <TD50_Mouse> (677)
NP

>  <Rat_Female_Canc> (677)
1

>  <Canc> (677)
1

>  <MolWeight> (677)
166.22

>  <Mouse_Male_Canc> (677)
1

>  <Mouse_Male_NTP> (677)
NE

>  <ChemName> (677)
2-tert-Butylhydroquinone

>  <Rat_Male_NTP> (677)
NE

>  <Reference> (677)
NTP459

>  <Formula> (677)
C10H14O2 

>  <SMILES> (677)
Oc(c(cc(O)c1)C(C)(C)C)c1

>  <Rat_Female_NTP> (677)
NE

>  <CAS> (677)
1948-33-0

>  <Mouse_Female_NTP> (677)
NE

>  <Synonyms> (677)
1,4-Benzenediol, 2-(1,1-dimethylethyl)-; Mono-tert-butylhydroquinone; TBHQ; tert-Butylhydroquinone.

$$$$
678
 

 84 89  0  0  0  0  0  0  0  0999 V2000
   25.1210  -64.1878    0.0281 C   0  0  0  0  0  0  0  0  0  0  0  0
   25.3228  -65.5293   -0.0233 C   0  0  0  0  0  0  0  0  0  0  0  0
   26.6982  -66.0809   -0.0274 C   0  0  0  0  0  0  0  0  0  0  0  0
   26.3854  -63.3258    0.0584 C   0  0  0  0  0  0  0  0  0  0  0  0
   13.7906  -64.8236    0.0426 C   0  0  0  0  0  0  0  0  0  0  0  0
   14.6825  -65.8274    0.0291 C   0  0  0  0  0  0  0  0  0  0  0  0
   16.6898  -64.3713   -0.0034 C   0  0  0  0  0  0  0  0  0  0  0  0
   15.6969  -63.2198    0.0038 C   0  0  0  0  0  0  0  0  0  0  0  0
   16.1649  -65.6008    0.0056 C   0  0  0  0  0  0  0  0  0  0  0  0
   14.3446  -63.4342    0.0267 C   0  0  0  0  0  0  0  0  0  0  0  0
    4.9047  -65.1255    0.0413 C   0  0  0  0  0  0  0  0  0  0  0  0
    4.8441  -66.4538   -0.0256 C   0  0  0  0  0  0  0  0  0  0  0  0
    6.0997  -67.2186   -0.0430 C   0  0  0  0  0  0  0  0  0  0  0  0
    6.2242  -64.4396    0.0876 C   0  0  0  0  0  0  0  0  0  0  0  0
    7.3647  -65.1515    0.0631 C   0  0  0  0  0  0  0  0  0  0  0  0
    7.2827  -66.5864   -0.0038 C   0  0  0  0  0  0  0  0  0  0  0  0
    9.7266  -66.7571   -0.0325 C   0  0  0  0  0  0  0  0  0  0  0  0
    9.8846  -65.2240    0.0445 C   0  0  0  0  0  0  0  0  0  0  0  0
    8.5150  -67.3381   -0.0443 C   0  0  0  0  0  0  0  0  0  0  0  0
    8.7488  -64.4942    0.0886 C   0  0  0  0  0  0  0  0  0  0  0  0
    6.2574  -63.0513    0.1474 N   0  0  0  0  0  0  0  0  0  0  0  0
    3.2558  -67.2952   -0.1213 S   0  0  0  0  0  0  0  0  0  0  0  0
    8.8443  -63.1226    0.1529 O   0  0  0  0  0  0  0  0  0  0  0  0
   11.0839  -67.9062   -0.1256 S   0  0  0  0  0  0  0  0  0  0  0  0
   11.2591  -64.5153    0.0614 N   0  0  0  0  0  0  0  0  0  0  0  0
   12.2952  -65.1907    0.0641 N   0  0  0  0  0  0  0  0  0  0  0  0
   18.2908  -64.2332    0.0014 C   0  0  0  0  0  0  0  0  0  0  0  0
   19.0046  -65.3549    0.0314 C   0  0  0  0  0  0  0  0  0  0  0  0
   21.2135  -64.1948    0.0684 C   0  0  0  0  0  0  0  0  0  0  0  0
   20.4672  -62.9277    0.0284 C   0  0  0  0  0  0  0  0  0  0  0  0
   20.4843  -65.3237    0.0697 C   0  0  0  0  0  0  0  0  0  0  0  0
   19.0956  -62.9274   -0.0020 C   0  0  0  0  0  0  0  0  0  0  0  0
   21.2074  -61.7451    0.0284 O   0  0  0  0  0  0  0  0  0  0  0  0
   13.4434  -62.3604    0.0359 O   0  0  0  0  0  0  0  0  0  0  0  0
   22.7519  -64.3376    0.0915 N   0  0  0  0  0  0  0  0  0  0  0  0
   23.7112  -63.5580    0.0413 N   0  0  0  0  0  0  0  0  0  0  0  0
   27.6244  -63.8835    0.0411 C   0  0  0  0  0  0  0  0  0  0  0  0
   27.7739  -65.3104    0.0011 C   0  0  0  0  0  0  0  0  0  0  0  0
   30.2166  -65.1498   -0.0215 C   0  0  0  0  0  0  0  0  0  0  0  0
   30.0816  -63.6757    0.0239 C   0  0  0  0  0  0  0  0  0  0  0  0
   29.1251  -65.9178   -0.0265 C   0  0  0  0  0  0  0  0  0  0  0  0
   28.8821  -63.0737    0.0549 C   0  0  0  0  0  0  0  0  0  0  0  0
   26.2627  -61.9526    0.0935 O   0  0  0  0  0  0  0  0  0  0  0  0
   28.8304  -61.6839    0.0927 N   0  0  0  0  0  0  0  0  0  0  0  0
   31.8449  -65.9103   -0.0882 S   0  0  0  0  0  0  0  0  0  0  0  0
   24.0521  -66.7947   -0.1015 S   0  0  0  0  0  0  0  0  0  0  0  0
    2.3191  -66.5304   -1.0388 O   0  0  0  0  0  0  0  0  0  0  0  0
    3.4444  -68.7120   -0.6307 O   0  0  0  0  0  0  0  0  0  0  0  0
   10.7162  -68.9666   -1.1425 O   0  0  0  0  0  0  0  0  0  0  0  0
   12.4094  -67.3470   -0.5688 O   0  0  0  0  0  0  0  0  0  0  0  0
   24.5411  -67.8821   -1.0299 O   0  0  0  0  0  0  0  0  0  0  0  0
   22.7283  -66.4200   -0.7015 O   0  0  0  0  0  0  0  0  0  0  0  0
   31.8589  -66.9751   -1.1698 O   0  0  0  0  0  0  0  0  0  0  0  0
   32.9170  -64.8728   -0.3653 O   0  0  0  0  0  0  0  0  0  0  0  0
    2.5397  -67.3552    1.4207 O   0  5  0  0  0  0  0  0  0  0  0  0
   11.2539  -68.6740    1.3926 O   0  5  0  0  0  0  0  0  0  0  0  0
   23.8464  -67.4735    1.4609 O   0  5  0  0  0  0  0  0  0  0  0  0
   32.1767  -66.6793    1.3922 O   0  5  0  0  0  0  0  0  0  0  0  0
   14.1214  -61.1136    0.0217 C   0  0  0  0  0  0  0  0  0  0  0  0
   20.3666  -60.6135   -0.0007 C   0  0  0  0  0  0  0  0  0  0  0  0
   26.8182  -67.0733   -0.0527 H   0  0  0  0  0  0  0  0  0  0  0  0
   14.3431  -66.7681    0.0348 H   0  0  0  0  0  0  0  0  0  0  0  0
   16.0406  -62.2808   -0.0085 H   0  0  0  0  0  0  0  0  0  0  0  0
   16.7776  -66.3911   -0.0035 H   0  0  0  0  0  0  0  0  0  0  0  0
    4.0617  -64.5878    0.0604 H   0  0  0  0  0  0  0  0  0  0  0  0
    6.0719  -68.2174   -0.0843 H   0  0  0  0  0  0  0  0  0  0  0  0
    8.4645  -68.3361   -0.0828 H   0  0  0  0  0  0  0  0  0  0  0  0
    7.1351  -62.5731    0.1792 H   0  0  0  0  0  0  0  0  0  0  0  0
    5.4037  -62.5307    0.1586 H   0  0  0  0  0  0  0  0  0  0  0  0
    9.8078  -62.8551    0.1617 H   0  0  0  0  0  0  0  0  0  0  0  0
   18.5327  -66.2366    0.0280 H   0  0  0  0  0  0  0  0  0  0  0  0
   20.9713  -66.1967    0.0984 H   0  0  0  0  0  0  0  0  0  0  0  0
   18.6086  -62.0544   -0.0270 H   0  0  0  0  0  0  0  0  0  0  0  0
   30.9078  -63.1125    0.0316 H   0  0  0  0  0  0  0  0  0  0  0  0
   29.2201  -66.9130   -0.0492 H   0  0  0  0  0  0  0  0  0  0  0  0
   27.1718  -61.5366    0.1100 H   0  0  0  0  0  0  0  0  0  0  0  0
   29.6771  -61.1520    0.1016 H   0  0  0  0  0  0  0  0  0  0  0  0
   27.9464  -61.2167    0.1109 H   0  0  0  0  0  0  0  0  0  0  0  0
   13.4529  -60.3700    0.0287 H   0  0  0  0  0  0  0  0  0  0  0  0
   14.6831  -61.0484   -0.8031 H   0  0  0  0  0  0  0  0  0  0  0  0
   14.7067  -61.0427    0.8295 H   0  0  0  0  0  0  0  0  0  0  0  0
   20.9240  -59.7833    0.0000 H   0  0  0  0  0  0  0  0  0  0  0  0
   19.7740  -60.6171    0.8048 H   0  0  0  0  0  0  0  0  0  0  0  0
   19.8046  -60.6363   -0.8276 H   0  0  0  0  0  0  0  0  0  0  0  0
  1  2  2  0  0  0  0
  1  4  1  0  0  0  0
  2  3  1  0  0  0  0
  3 38  2  0  0  0  0
 37  4  2  0  0  0  0
  5  6  2  0  0  0  0
  7  8  1  0  0  0  0
  5 10  1  0  0  0  0
  6  9  1  0  0  0  0
  9  7  2  0  0  0  0
  8 10  2  0  0  0  0
 11 12  2  0  0  0  0
 11 14  1  0  0  0  0
 12 13  1  0  0  0  0
 13 16  2  0  0  0  0
 15 14  2  0  0  0  0
 15 16  1  0  0  0  0
 17 18  1  0  0  0  0
 15 20  1  0  0  0  0
 16 19  1  0  0  0  0
 19 17  2  0  0  0  0
 18 20  2  0  0  0  0
 14 21  1  0  0  0  0
 12 22  1  0  0  0  0
 20 23  1  0  0  0  0
 17 24  1  0  0  0  0
 18 25  1  0  0  0  0
 25 26  2  0  0  0  0
 26  5  1  0  0  0  0
  7 27  1  0  0  0  0
 27 28  2  0  0  0  0
 29 30  1  0  0  0  0
 27 32  1  0  0  0  0
 28 31  1  0  0  0  0
 31 29  2  0  0  0  0
 30 32  2  0  0  0  0
 30 33  1  0  0  0  0
 10 34  1  0  0  0  0
 29 35  1  0  0  0  0
 35 36  2  0  0  0  0
 36  1  1  0  0  0  0
 37 38  1  0  0  0  0
 39 40  1  0  0  0  0
 37 42  1  0  0  0  0
 38 41  1  0  0  0  0
 41 39  2  0  0  0  0
 40 42  2  0  0  0  0
  4 43  1  0  0  0  0
 42 44  1  0  0  0  0
 39 45  1  0  0  0  0
  2 46  1  0  0  0  0
 22 47  2  0  0  0  0
 22 48  2  0  0  0  0
 24 49  2  0  0  0  0
 24 50  2  0  0  0  0
 46 51  2  0  0  0  0
 46 52  2  0  0  0  0
 45 53  2  0  0  0  0
 45 54  2  0  0  0  0
 22 55  1  0  0  0  0
 24 56  1  0  0  0  0
 46 57  1  0  0  0  0
 45 58  1  0  0  0  0
 34 59  1  0  0  0  0
 33 60  1  0  0  0  0
  3 61  1  0  0  0  0
  6 62  1  0  0  0  0
  8 63  1  0  0  0  0
  9 64  1  0  0  0  0
 11 65  1  0  0  0  0
 13 66  1  0  0  0  0
 19 67  1  0  0  0  0
 21 68  1  0  0  0  0
 21 69  1  0  0  0  0
 23 70  1  0  0  0  0
 28 71  1  0  0  0  0
 31 72  1  0  0  0  0
 32 73  1  0  0  0  0
 40 74  1  0  0  0  0
 41 75  1  0  0  0  0
 43 76  1  0  0  0  0
 44 77  1  0  0  0  0
 44 78  1  0  0  0  0
 59 79  1  0  0  0  0
 59 80  1  0  0  0  0
 59 81  1  0  0  0  0
 60 82  1  0  0  0  0
 60 83  1  0  0  0  0
 60 84  1  0  0  0  0
M  END
>  <Substance ID> (678)
678

>  <Mouse_Female_Canc> (678)
ND

>  <SAL> (678)
3

>  <Rat_Male_Canc> (678)
3

>  <TD50_Rat> (678)
27.5

>  <TD50_Mouse> (678)
ND

>  <Rat_Female_Canc> (678)
3

>  <Canc> (678)
3

>  <MolWeight> (678)
992.81

>  <Mouse_Male_Canc> (678)
ND

>  <Mouse_Male_NTP> (678)
ND

>  <ChemName> (678)
C.I. Direct Blue 15

>  <Rat_Male_NTP> (678)
CE

>  <Reference> (678)
NTP397

>  <Formula> (678)
C34H24N6O16S4Na4

>  <SMILES> (678)
[Na+].[O-]S(=O)(=O)c6cc1cc(cc(N)c1c(O)c6/N=N/c5ccc(c4cc(OC)c(/N=N/c3c(cc2cc(cc(N)c2c3O)S([O-])(=O)=O)S([O-].[Na+].)(=O)=O)cc4)cc5OC)S([O-].[Na+].)(=O)=O.[Na+]

>  <Rat_Female_NTP> (678)
CE

>  <CAS> (678)
2429-74-5

>  <Mouse_Female_NTP> (678)
ND

>  <Synonyms> (678)
3,3'-((3,3'-dimethoxy-4,4'-biphenylylene)bis(azo))bis(5-amino-4-hydroxy-2,7-naphthalenedisulfonic acid), tetrasodium salt; airedale blue d; aizen direct sky blue 5bh; amanil sky blue; atlantic sky blue a; atul direct sky blue; azine sky blue 5b; belamine sky blue a; benzanil sky blue; benzo sky blue a-cf; benzo sky blue s; diacotton sky blue 5b; diamine sky blue ci; diaphtamine pure blue; diazol pure blue 4b; diphenyl brilliant blue; diphenyl sky blue 6b; direct blue 10g; direct blue 15; direct blue hh; direct pure blue; direct pure blue m; DIRECT SKY BLUE; direct sky blue a; chloramine sky blue 4b; chloramine sky blue a; chrome leather pure blue; C.I. 24400; C.I. Direct blue 15, tetrasodium salt; cresotine pure blue; enianil pure blue an; fenamin sky blue; hispamin sky blue 3b; kayaku direct sky blue 5b; mitsui direct sky blue 5b; naphtamine blue 10g; niagara blue 4b; niagara sky blue; nippon direct sky blue; nitto direct sky blue 5b; phenamine sky blue a; pontacyl sky blue 4bx; pontamine sky blue 5bx; shikiso direct sky blue 5b; sky blue 4b; sky blue 5b; tertrodirect blue f; vondacel blue hh.

$$$$
679
 

 15 15  0  0  0  0  0  0  0  0999 V2000
    2.6701  -80.5572   -0.0009 C   0  0  0  0  0  0  0  0  0  0  0  0
    2.6741  -81.8884   -0.0003 C   0  0  0  0  0  0  0  0  0  0  0  0
    5.0955  -81.9480   -0.0001 C   0  0  0  0  0  0  0  0  0  0  0  0
    5.0914  -80.4846    0.0004 C   0  0  0  0  0  0  0  0  0  0  0  0
    3.9439  -82.6162    0.0000 C   0  0  0  0  0  0  0  0  0  0  0  0
    3.9361  -79.8215    0.0000 C   0  0  0  0  0  0  0  0  0  0  0  0
    3.9322  -78.4312    0.0004 O   0  0  0  0  0  0  0  0  0  0  0  0
    3.9474  -84.0130   -0.0006 N   0  3  0  0  0  0  0  0  0  0  0  0
    2.8014  -84.6774   -0.0004 O   0  5  0  0  0  0  0  0  0  0  0  0
    4.9671  -84.5975   -0.0003 O   0  0  0  0  0  0  0  0  0  0  0  0
    1.8026  -80.0598   -0.0020 H   0  0  0  0  0  0  0  0  0  0  0  0
    1.8096  -82.3911    0.0000 H   0  0  0  0  0  0  0  0  0  0  0  0
    5.9628  -82.4458   -0.0006 H   0  0  0  0  0  0  0  0  0  0  0  0
    5.9561  -79.9822    0.0010 H   0  0  0  0  0  0  0  0  0  0  0  0
    4.8739  -78.0948    0.0011 H   0  0  0  0  0  0  0  0  0  0  0  0
  1  2  2  0  0  0  0
  3  4  1  0  0  0  0
  1  6  1  0  0  0  0
  2  5  1  0  0  0  0
  5  3  2  0  0  0  0
  4  6  2  0  0  0  0
  6  7  1  0  0  0  0
  5  8  1  0  0  0  0
  8  9  1  0  0  0  0
  8 10  2  0  0  0  0
  1 11  1  0  0  0  0
  2 12  1  0  0  0  0
  3 13  1  0  0  0  0
  4 14  1  0  0  0  0
  7 15  1  0  0  0  0
M  END
>  <Substance ID> (679)
679

>  <Mouse_Female_Canc> (679)
1

>  <SAL> (679)
1

>  <Rat_Male_Canc> (679)
ND

>  <TD50_Rat> (679)
ND

>  <TD50_Mouse> (679)
NP

>  <Rat_Female_Canc> (679)
ND

>  <Canc> (679)
1

>  <MolWeight> (679)
139.11

>  <Mouse_Male_Canc> (679)
1

>  <Mouse_Male_NTP> (679)
NE

>  <ChemName> (679)
p-Nitrophenol

>  <Rat_Male_NTP> (679)
ND

>  <Reference> (679)
NTP417

>  <Formula> (679)
C6H5NO3 

>  <SMILES> (679)
N(=O)(=O)c(ccc(O)c1)c1

>  <Rat_Female_NTP> (679)
ND

>  <CAS> (679)
100-02-7

>  <Mouse_Female_NTP> (679)
NE

>  <Synonyms> (679)
4-Hydroxynitrobenzene; 4-Nitrophenol; 4-Notrophenol; mononitrophenol; Niphen; PNP.

$$$$
680
 

 23 20  0  0  0  0  0  0  0  0999 V2000
    9.1463  -89.4958    0.0002 C   0  5  0  0  0  0  0  0  0  0
    7.6391  -89.3589   -0.0002 C   0  0  0  0  0  0  0  0  0  0
    7.0573  -90.5545   -0.0003 C   0  0  0  0  0  0  0  0  0  0
    8.0787  -91.5802    0.0001 C   0  0  0  0  0  0  0  0  0  0
    9.2768  -91.0034    0.0003 C   0  0  0  0  0  0  0  0  0  0
    9.5554  -89.0886   -0.8164 H   0  0  0  0  0  0  0  0  0  0
    7.1478  -88.4879   -0.0003 H   0  0  0  0  0  0  0  0  0  0
    6.0709  -90.7189   -0.0007 H   0  0  0  0  0  0  0  0  0  0
    7.9101  -92.5658    0.0002 H   0  0  0  0  0  0  0  0  0  0
   10.1456  -91.4985    0.0006 H   0  0  0  0  0  0  0  0  0  0
    9.1323  -86.9417    0.0003 C   0  5  0  0  0  0  0  0  0  0
    9.2637  -85.4341    0.0004 C   0  0  0  0  0  0  0  0  0  0
    8.0659  -84.8567    0.0002 C   0  0  0  0  0  0  0  0  0  0
    7.0439  -85.8820    0.0000 C   0  0  0  0  0  0  0  0  0  0
    7.6251  -87.0779    0.0001 C   0  0  0  0  0  0  0  0  0  0
    9.5412  -87.3491   -0.8163 H   0  0  0  0  0  0  0  0  0  0
   10.1328  -84.9395    0.0006 H   0  0  0  0  0  0  0  0  0  0
    7.8978  -83.8710    0.0002 H   0  0  0  0  0  0  0  0  0  0
    6.0576  -85.7170   -0.0001 H   0  0  0  0  0  0  0  0  0  0
    7.1333  -87.9486   -0.0000 H   0  0  0  0  0  0  0  0  0  0
   10.7347  -88.2442   -0.0001 Ti  0  0  0  0  0  0  0  0  0  0
   11.7414  -87.3916   -0.0000 Cl  0  5  0  0  0  0  0  0  0  0
   11.7576  -89.6244    0.0009 Cl  0  5  0  0  0  0  0  0  0  0
  2  3  2  0  0  0
  1  2  1  0  0  0
  3  4  1  0  0  0
  4  5  2  0  0  0
  5  1  1  0  0  0
  1  6  1  0  0  0
  2  7  1  0  0  0
  3  8  1  0  0  0
  4  9  1  0  0  0
  5 10  1  0  0  0
 12 13  2  0  0  0
 11 12  1  0  0  0
 13 14  1  0  0  0
 14 15  2  0  0  0
 15 11  1  0  0  0
 11 16  1  0  0  0
 12 17  1  0  0  0
 13 18  1  0  0  0
 14 19  1  0  0  0
 15 20  1  0  0  0
M  END
>  <Substance ID> (680)
680

>  <Mouse_Female_Canc> (680)
ND

>  <SAL> (680)
3

>  <Rat_Male_Canc> (680)
2

>  <TD50_Rat> (680)
NP

>  <TD50_Mouse> (680)
ND

>  <Rat_Female_Canc> (680)
2

>  <Canc> (680)
2

>  <MolWeight> (680)
248.96

>  <Mouse_Male_Canc> (680)
ND

>  <Mouse_Male_NTP> (680)
ND

>  <ChemName> (680)
Titanocene dichloride

>  <Rat_Male_NTP> (680)
EE

>  <Reference> (680)
NTP399

>  <Formula> (680)
C10H10Cl2Ti

>  <SMILES> (680)
[Ti+4].[Cl-].[Cl-].[c-]1cccc1.c1[c-]ccc1

>  <Rat_Female_NTP> (680)
EE

>  <CAS> (680)
1271-19-8

>  <Mouse_Female_NTP> (680)
ND

>  <Synonyms> (680)
dichlorodicyclopentadienyltitanium; dichlorobis(eta(sup 5)-2,4-cyclopentadien-1-yltitanium); dichlorodi-pi-cyclopentadienyltitanium; dichlorotitanocene; bis(cyclopentadienyl)dichlorotitanium; biscyclopentadienyltitanium dichloride; biscyclopentadienyltitanium(IV) dichloride; Titanium, dichlorobis(eta5-2,4-cyclopentadien-1-yl)-; titanium ferrocene; titanocene.

$$$$
681
 

 32 35  0  0  0  0  0  0  0  0999 V2000
   35.9114  -11.3527    0.5815 C   0  0  1  0  0  0  0  0  0  0
   36.1943  -12.8174    0.3090 C   0  0  0  0  0  0  0  0  0  0
   37.2168  -10.7180    0.1368 C   0  0  0  0  0  0  0  0  0  0
   29.7301   -9.7679   -0.4083 C   0  0  0  0  0  0  0  0  0  0
   29.8344  -11.0637   -0.1151 C   0  0  0  0  0  0  0  0  0  0
   31.1553  -11.6572    0.1181 C   0  0  0  0  0  0  0  0  0  0
   30.9372   -8.9427   -0.5074 C   0  0  0  0  0  0  0  0  0  0
   32.1315   -9.4939   -0.2990 C   0  0  0  0  0  0  0  0  0  0
   32.2470  -10.8991    0.0294 C   0  0  0  0  0  0  0  0  0  0
   34.5737  -10.7349    0.2114 C   0  0  0  0  0  0  0  0  0  0
   34.5086   -9.2995   -0.1506 C   0  0  0  0  0  0  0  0  0  0
   33.5107  -11.4447    0.2787 N   0  0  0  0  0  0  0  0  0  0
   33.3404   -8.7078   -0.3920 C   0  0  0  0  0  0  0  0  0  0
   38.1851  -11.7780   -0.1164 C   0  0  0  0  0  0  0  0  0  0
   37.6079  -12.9640   -0.0192 C   0  0  0  0  0  0  0  0  0  0
   39.6498  -14.0938   -0.5031 C   0  0  0  0  0  0  0  0  0  0
   40.3027  -12.7514   -0.6135 C   0  0  0  0  0  0  0  0  0  0
   38.3460  -14.1922   -0.2232 C   0  0  0  0  0  0  0  0  0  0
   39.5899  -11.6347   -0.4333 C   0  0  0  0  0  0  0  0  0  0
   37.4506   -9.5036    0.0465 O   0  0  0  0  0  0  0  0  0  0
   35.3830  -13.7502    0.3958 O   0  0  0  0  0  0  0  0  0  0
   35.8996  -11.2736    1.6740 H   0  0  0  0  0  0  0  0  0  0
   28.8301   -9.3595   -0.5604 H   0  0  0  0  0  0  0  0  0  0
   29.0131  -11.6308   -0.0542 H   0  0  0  0  0  0  0  0  0  0
   31.2361  -12.6282    0.3432 H   0  0  0  0  0  0  0  0  0  0
   30.8644   -7.9705   -0.7303 H   0  0  0  0  0  0  0  0  0  0
   35.3533   -8.7680   -0.2145 H   0  0  0  0  0  0  0  0  0  0
   33.3005   -7.7381   -0.6330 H   0  0  0  0  0  0  0  0  0  0
   40.1923  -14.9227   -0.6396 H   0  0  0  0  0  0  0  0  0  0
   41.2784  -12.6895   -0.8235 H   0  0  0  0  0  0  0  0  0  0
   37.8966  -15.0831   -0.1571 H   0  0  0  0  0  0  0  0  0  0
   40.0127  -10.7321   -0.5146 H   0  0  0  0  0  0  0  0  0  0
  1  2  1  0  0  0
  2 15  1  0  0  0
 14  3  1  0  0  0
  3  1  1  0  0  0
  4  5  2  0  0  0
  4  7  1  0  0  0
  5  6  1  0  0  0
  6  9  2  0  0  0
  8  7  2  0  0  0
  8  9  1  0  0  0
 10 11  1  0  0  0
  8 13  1  0  0  0
  9 12  1  0  0  0
 12 10  2  0  0  0
 11 13  2  0  0  0
 10  1  1  0  0  0
 14 15  2  0  0  0
 16 17  1  0  0  0
 14 19  1  0  0  0
 15 18  1  0  0  0
 18 16  2  0  0  0
 17 19  2  0  0  0
  3 20  2  0  0  0
  2 21  2  0  0  0
  1 22  1  0  0  0
  4 23  1  0  0  0
  5 24  1  0  0  0
  6 25  1  0  0  0
  7 26  1  0  0  0
 11 27  1  0  0  0
 13 28  1  0  0  0
 16 29  1  0  0  0
 17 30  1  0  0  0
 18 31  1  0  0  0
 19 32  1  0  0  0
M  END
>  <Substance ID> (681)
681

>  <Mouse_Female_Canc> (681)
ND

>  <SAL> (681)
3

>  <Rat_Male_Canc> (681)
3

>  <TD50_Rat> (681)
ND

>  <TD50_Mouse> (681)
ND

>  <Rat_Female_Canc> (681)
3

>  <Canc> (681)
3

>  <MolWeight> (681)
273.29

>  <Mouse_Male_Canc> (681)
ND

>  <Mouse_Male_NTP> (681)
ND

>  <ChemName> (681)
D & C yellow no. 11

>  <Rat_Male_NTP> (681)
SE

>  <Reference> (681)
NTP463

>  <Formula> (681)
C18H11NO2 

>  <SMILES> (681)
c1ccc2nc(C3C(=O)c4ccccc4C3(=O))ccc2c1

>  <Rat_Female_NTP> (681)
SE

>  <CAS> (681)
8003-22-3

>  <Mouse_Female_NTP> (681)
ND

>  <Synonyms> (681)
2-(1,3-dioxoindan-2-yl)quinoline; 2-(2-Quinolyl)-1,3-indandione; 2-(2-Quinolyl)indan-1,3-dione; arlosol yellow s; chinoline yellow d (sol. in spirits); chinoline yellow ZSS; C.I. 47000; C.I. Solvent Yellow 33; d & c yellow 11; nitro fast yellow sl; oil yellow sis; petrol yellow c; quinoline yellow a; quinoline yellow a spirit soluble; quinoline yellow base; Quinoline yellow, spirit soluble; quinoline yellow ss; solvent yellow 33; spirit soluble; waxoline yellow t.

$$$$
682
 

 31 31  0  0  0  0  0  0  0  0999 V2000
   -2.5855    0.8254   -0.6474 C   0  0  0  0  0  0  0  0  0  1  0  0
   -2.6072   -0.5526   -0.6503 C   0  0  0  0  0  0  0  0  0  2  0  0
   -1.3673   -1.3164   -0.6476 C   0  0  0  0  0  0  0  0  0  3  0  0
   -0.0643   -0.5817   -0.6594 C   0  0  0  0  0  0  0  0  0  4  0  0
   -0.0984    0.9164   -0.6510 C   0  0  0  0  0  0  0  0  0  5  0  0
   -1.3374    1.5530   -0.6478 C   0  0  0  0  0  0  0  0  0  6  0  0
    1.0714    1.5956   -0.6223 O   0  0  0  0  0  0  0  0  0  7  0  0
   -3.8728    1.5537   -0.6400 N   0  3  0  0  0  0  0  0  0  8  0  0
   -3.8780    3.0248   -0.6505 O   0  5  0  0  0  0  0  0  0  9  0  0
   -4.8807    1.0133   -0.6273 O   0  0  0  0  0  0  0  0  0 10  0  0
    1.1463   -1.2980   -0.6673 N   0  0  0  0  0  0  0  0  0 11  0  0
    2.0302   -1.0492   -1.8081 C   0  0  0  0  0  0  0  0  0 12  0  0
    1.3691   -2.2091    0.4654 C   0  0  0  0  0  0  0  0  0 13  0  0
    1.3731   -1.4683    1.7902 C   0  0  0  0  0  0  0  0  0 14  0  0
    1.6233   -2.3974    2.8413 O   0  0  0  0  0  0  0  0  0 15  0  0
    3.3139   -1.8421   -1.7296 C   0  0  0  0  0  0  0  0  0 16  0  0
    4.0949   -1.5227   -2.8732 O   0  0  0  0  0  0  0  0  0 17  0  0
   -3.5504   -1.1204   -0.6588 H   0  0  0  0  0  0  0  0  0 18  0  0
   -1.3637   -2.4153   -0.6630 H   0  0  0  0  0  0  0  0  0 19  0  0
   -1.3387    2.6598   -0.6549 H   0  0  0  0  0  0  0  0  0 20  0  0
    1.5322    1.3176   -1.4300 H   0  0  0  0  0  0  0  0  0 21  0  0
    2.3058    0.0245   -1.8264 H   0  0  0  0  0  0  0  0  0 22  0  0
    1.4752   -1.3200   -2.7357 H   0  0  0  0  0  0  0  0  0 23  0  0
    2.3556   -2.7064    0.3400 H   0  0  0  0  0  0  0  0  0 24  0  0
    0.5700   -2.9828    0.4569 H   0  0  0  0  0  0  0  0  0 25  0  0
    0.3709   -1.0117    1.9644 H   0  0  0  0  0  0  0  0  0 26  0  0
    2.1982   -0.7200    1.8083 H   0  0  0  0  0  0  0  0  0 27  0  0
    0.9174   -3.0248    2.7908 H   0  0  0  0  0  0  0  0  0 28  0  0
    3.0849   -2.9330   -1.7603 H   0  0  0  0  0  0  0  0  0 29  0  0
    3.8934   -1.5458   -0.8225 H   0  0  0  0  0  0  0  0  0 30  0  0
    4.8807   -2.0381   -2.7883 H   0  0  0  0  0  0  0  0  0 31  0  0
  1  2  2  0  0  0  0
  1  6  1  0  0  0  0
  1  8  1  0  0  0  0
  2  3  1  0  0  0  0
  2 18  1  0  0  0  0
  3  4  2  0  0  0  0
  3 19  1  0  0  0  0
  4  5  1  0  0  0  0
  4 11  1  0  0  0  0
  5  6  2  0  0  0  0
  5  7  1  0  0  0  0
  6 20  1  0  0  0  0
  7 21  1  6  0  0  0
  8  9  1  0  0  0  0
  8 10  2  0  0  0  0
 11 12  1  6  0  0  0
 11 13  1  1  0  0  0
 12 16  1  0  0  0  0
 12 22  1  0  0  0  0
 12 23  1  6  0  0  0
 13 14  1  1  0  0  0
 13 24  1  0  0  0  0
 13 25  1  0  0  0  0
 14 15  1  1  0  0  0
 14 26  1  0  0  0  0
 14 27  1  0  0  0  0
 15 28  1  0  0  0  0
 16 17  1  6  0  0  0
 16 29  1  0  0  0  0
 16 30  1  1  0  0  0
 17 31  1  0  0  0  0
M  END
>  <Substance ID> (682)
682

>  <Mouse_Female_Canc> (682)
1

>  <SAL> (682)
3

>  <Rat_Male_Canc> (682)
2

>  <TD50_Rat> (682)
NP

>  <TD50_Mouse> (682)
NP

>  <Rat_Female_Canc> (682)
1

>  <Canc> (682)
2

>  <MolWeight> (682)
242.23

>  <Mouse_Male_Canc> (682)
1

>  <Mouse_Male_NTP> (682)
NE

>  <ChemName> (682)
HC Yellow No. 4

>  <Rat_Male_NTP> (682)
EE

>  <Reference> (682)
NTP419

>  <Formula> (682)
C10H14N2O5

>  <SMILES> (682)
C1(=CC=C(C(=C1)O)N(CCO)CCO)[N+]([O-])=O

>  <Rat_Female_NTP> (682)
NE

>  <CAS> (682)
59820-43-8

>  <Mouse_Female_NTP> (682)
NE

>  <Synonyms> (682)
2-(bis(2-hydroxyethyl)amino)-5-nitrophenol; HC yellow 4; N-o-di(2-hydroxyethyl)-2-amino-5-nitrophenol.

$$$$
683
 

 15 15  0  0  0  0  0  0  0  0999 V2000
   37.8775  -37.2002   -0.0008 C   0  0  0  0  0  0  0  0  0  0  0  0
   37.8846  -38.5321   -0.0005 C   0  0  0  0  0  0  0  0  0  0  0  0
   40.3075  -38.5858    0.0003 C   0  0  0  0  0  0  0  0  0  0  0  0
   40.2998  -37.1208    0.0002 C   0  0  0  0  0  0  0  0  0  0  0  0
   39.1574  -39.2580    0.0002 C   0  0  0  0  0  0  0  0  0  0  0  0
   39.1426  -36.4611   -0.0001 C   0  0  0  0  0  0  0  0  0  0  0  0
   39.1345  -34.9607    0.0003 C   0  0  0  0  0  0  0  0  0  0  0  0
   37.0089  -36.7047   -0.0014 H   0  0  0  0  0  0  0  0  0  0  0  0
   37.0212  -39.0367   -0.0007 H   0  0  0  0  0  0  0  0  0  0  0  0
   41.1761  -39.0812    0.0005 H   0  0  0  0  0  0  0  0  0  0  0  0
   41.1631  -36.6161    0.0003 H   0  0  0  0  0  0  0  0  0  0  0  0
   39.1627  -40.2580    0.0005 H   0  0  0  0  0  0  0  0  0  0  0  0
   40.0753  -34.6218    0.0007 H   0  0  0  0  0  0  0  0  0  0  0  0
   38.6611  -34.6296    0.8166 H   0  0  0  0  0  0  0  0  0  0  0  0
   38.6617  -34.6292   -0.8162 H   0  0  0  0  0  0  0  0  0  0  0  0
  1  2  2  0  0  0  0
  3  4  1  0  0  0  0
  1  6  1  0  0  0  0
  2  5  1  0  0  0  0
  5  3  2  0  0  0  0
  4  6  2  0  0  0  0
  6  7  1  0  0  0  0
  1  8  1  0  0  0  0
  2  9  1  0  0  0  0
  3 10  1  0  0  0  0
  4 11  1  0  0  0  0
  5 12  1  0  0  0  0
  7 13  1  0  0  0  0
  7 14  1  0  0  0  0
  7 15  1  0  0  0  0
M  END
>  <Substance ID> (683)
683

>  <Mouse_Female_Canc> (683)
1

>  <SAL> (683)
1

>  <Rat_Male_Canc> (683)
1

>  <TD50_Rat> (683)
NP

>  <TD50_Mouse> (683)
NP

>  <Rat_Female_Canc> (683)
1

>  <Canc> (683)
1

>  <MolWeight> (683)
92.14

>  <Mouse_Male_Canc> (683)
1

>  <Mouse_Male_NTP> (683)
NE

>  <ChemName> (683)
Toluene 

>  <Rat_Male_NTP> (683)
NE

>  <Reference> (683)
NTP371

>  <Formula> (683)
C7H8

>  <SMILES> (683)
CC1=CC=CC=C1

>  <Rat_Female_NTP> (683)
NE

>  <CAS> (683)
108-88-3

>  <Mouse_Female_NTP> (683)
NE

>  <Synonyms> (683)
Antisal 1a; Methacide; methyl-Benzene; Methylbenzol; Monomethyl benzene; phenyl methane; Tol; Toluol; tolu-sol.

$$$$
684


 53 55  0  0  0  0  0  0  0  0999 V2000
   -4.0561    4.0478   -2.8563 C   0  0  0  0  0  0  0  0  0  1  0  0
   -3.9743    3.1835   -1.6209 C   0  0  0  0  0  0  0  0  0  2  0  0
   -5.2884    2.8792   -0.9416 C   0  0  0  0  0  0  0  0  0  3  0  0
   -5.1370    2.0929    0.3700 C   0  0  0  0  0  0  0  0  0  4  0  0
   -4.0065    1.0621    0.2258 C   0  0  1  0  0  0  0  0  0  5  0  0
   -2.6850    1.8349    0.0632 C   0  0  2  0  0  0  0  0  0  6  0  0
   -2.8074    2.6800   -1.1844 C   0  0  0  0  0  0  0  0  0  7  0  0
   -3.8979    0.0012    1.3264 C   0  0  0  0  0  0  0  0  0  8  0  0
   -2.9131   -0.9373    0.9190 O   0  0  0  0  0  0  0  0  0  9  0  0
   -1.7027   -0.4434    0.5129 C   0  0  0  0  0  0  0  0  0 10  0  0
   -1.4968    0.8932    0.1234 C   0  0  0  0  0  0  0  0  0 11  0  0
   -5.2014   -0.7998    1.4676 C   0  0  0  0  0  0  0  0  0 12  0  0
   -3.5291    0.5653    2.7043 C   0  0  0  0  0  0  0  0  0 13  0  0
   -0.5938   -1.2966    0.5761 C   0  0  0  0  0  0  0  0  0 14  0  0
    0.6989   -0.8787    0.2587 C   0  0  0  0  0  0  0  0  0 15  0  0
    0.8758    0.4669   -0.0603 C   0  0  0  0  0  0  0  0  0 16  0  0
   -0.1956    1.3610   -0.1327 C   0  0  0  0  0  0  0  0  0 17  0  0
    1.8795   -1.8222    0.3042 C   0  0  0  0  0  0  0  0  0 18  0  0
    2.3870   -2.1297   -1.1140 C   0  0  0  0  0  0  0  0  0 19  0  0
    3.6174   -3.0510   -1.1067 C   0  0  0  0  0  0  0  0  0 20  0  0
    4.1481   -3.3038   -2.5273 C   0  0  0  0  0  0  0  0  0 21  0  0
    5.3922   -4.2017   -2.5248 C   0  0  0  0  0  0  0  0  0 22  0  0
    0.0714    2.6667   -0.4090 O   0  0  0  0  0  0  0  0  0 23  0  0
   -3.0616    4.2319   -3.3203 H   0  0  0  0  0  0  0  0  0 24  0  0
   -4.4953    5.0389   -2.6024 H   0  0  0  0  0  0  0  0  0 25  0  0
   -4.7003    3.5625   -3.6238 H   0  0  0  0  0  0  0  0  0 26  0  0
   -5.8932    2.2777   -1.6619 H   0  0  0  0  0  0  0  0  0 27  0  0
   -5.8422    3.8274   -0.7481 H   0  0  0  0  0  0  0  0  0 28  0  0
   -6.1139    1.6164    0.6123 H   0  0  0  0  0  0  0  0  0 29  0  0
   -4.9021    2.7887    1.2091 H   0  0  0  0  0  0  0  0  0 30  0  0
   -4.1989    0.4943   -0.7214 H   0  0  0  0  0  0  0  0  0 31  0  0
   -2.5433    2.5500    0.9097 H   0  0  0  0  0  0  0  0  0 32  0  0
   -1.8983    2.9424   -1.7424 H   0  0  0  0  0  0  0  0  0 33  0  0
   -5.0590   -1.6823    2.1323 H   0  0  0  0  0  0  0  0  0 34  0  0
   -5.5530   -1.1840    0.4834 H   0  0  0  0  0  0  0  0  0 35  0  0
   -6.0211   -0.1952    1.9141 H   0  0  0  0  0  0  0  0  0 36  0  0
   -3.4814   -0.2444    3.4674 H   0  0  0  0  0  0  0  0  0 37  0  0
   -4.2869    1.3025    3.0520 H   0  0  0  0  0  0  0  0  0 38  0  0
   -2.5394    1.0708    2.7193 H   0  0  0  0  0  0  0  0  0 39  0  0
   -0.7535   -2.3392    0.8968 H   0  0  0  0  0  0  0  0  0 40  0  0
    1.8934    0.8409   -0.2584 H   0  0  0  0  0  0  0  0  0 41  0  0
    1.6039   -2.7716    0.8189 H   0  0  0  0  0  0  0  0  0 42  0  0
    2.6900   -1.3528    0.9094 H   0  0  0  0  0  0  0  0  0 43  0  0
    2.6553   -1.1768   -1.6292 H   0  0  0  0  0  0  0  0  0 44  0  0
    1.5680   -2.6064   -1.7039 H   0  0  0  0  0  0  0  0  0 45  0  0
    3.3515   -4.0235   -0.6288 H   0  0  0  0  0  0  0  0  0 46  0  0
    4.4235   -2.5850   -0.4914 H   0  0  0  0  0  0  0  0  0 47  0  0
    4.4036   -2.3300   -3.0097 H   0  0  0  0  0  0  0  0  0 48  0  0
    3.3503   -3.7813   -3.1449 H   0  0  0  0  0  0  0  0  0 49  0  0
    5.7650   -4.3698   -3.5616 H   0  0  0  0  0  0  0  0  0 50  0  0
    5.1682   -5.1976   -2.0789 H   0  0  0  0  0  0  0  0  0 51  0  0
    6.2198   -3.7402   -1.9389 H   0  0  0  0  0  0  0  0  0 52  0  0
    1.0360    2.7788   -0.4035 H   0  0  0  0  0  0  0  0  0 53  0  0
  1  2  1  1  0  0  0
  1 24  1  0  0  0  0
  1 25  1  0  0  0  0
  1 26  1  6  0  0  0
  2  3  1  1  0  0  0
  2  7  2  0  0  0  0
  3  4  1  1  0  0  0
  3 27  1  6  0  0  0
  3 28  1  0  0  0  0
  4  5  1  0  0  0  0
  4 29  1  0  0  0  0
  4 30  1  1  0  0  0
  5  6  1  0  0  0  0
  5  8  1  1  0  0  0
  5 31  1  6  0  0  0
  6  7  1  6  0  0  0
  6 11  1  0  0  0  0
  6 32  1  1  0  0  0
  7 33  1  6  0  0  0
  8  9  1  0  0  0  0
  8 12  1  0  0  0  0
  8 13  1  1  0  0  0
  9 10  1  0  0  0  0
 10 11  2  0  0  0  0
 10 14  1  0  0  0  0
 11 17  1  0  0  0  0
 12 34  1  1  0  0  0
 12 35  1  6  0  0  0
 12 36  1  0  0  0  0
 13 37  1  1  0  0  0
 13 38  1  0  0  0  0
 13 39  1  0  0  0  0
 14 15  2  0  0  0  0
 14 40  1  0  0  0  0
 15 16  1  0  0  0  0
 15 18  1  0  0  0  0
 16 17  2  0  0  0  0
 16 41  1  0  0  0  0
 17 23  1  0  0  0  0
 18 19  1  6  0  0  0
 18 42  1  1  0  0  0
 18 43  1  1  0  0  0
 19 20  1  0  0  0  0
 19 44  1  6  0  0  0
 19 45  1  6  0  0  0
 20 21  1  6  0  0  0
 20 46  1  0  0  0  0
 20 47  1  1  0  0  0
 21 22  1  0  0  0  0
 21 48  1  0  0  0  0
 21 49  1  6  0  0  0
 22 50  1  6  0  0  0
 22 51  1  0  0  0  0
 22 52  1  1  0  0  0
 23 53  1  0  0  0  0
M  END
>  <Substance ID> (684)
684

>  <Mouse_Female_Canc> (684)
2

>  <SAL> (684)
1

>  <Rat_Male_Canc> (684)
1

>  <TD50_Rat> (684)
NP

>  <TD50_Mouse> (684)
NP

>  <Rat_Female_Canc> (684)
1

>  <Canc> (684)
2

>  <MolWeight> (684)
314.47

>  <Mouse_Male_Canc> (684)
2

>  <Mouse_Male_NTP> (684)
EE

>  <ChemName> (684)
1-trans-delta(sup 9)-tetrahydrocannabinol

>  <Rat_Male_NTP> (684)
NE

>  <Reference> (684)
NTP446

>  <Formula> (684)
C21H30O2

>  <SMILES> (684)
Oc2cc(cc1O[C@@]([C@@H]3[C@H2][C@@H2]/C(=C\[C@H]3c12)[C@H3])([C@H3])[C@@H3])[C@H2][C@@H2][C@@H2][C@@H2][C@H3]

>  <Rat_Female_NTP> (684)
NE

>  <CAS> (684)
1972-08-3

>  <Mouse_Female_NTP> (684)
EE

>  <Synonyms> (684)
1-trans-D9-Tetrahydrocannabinol; 3-pentyl-6,6,9-trimethyl-6a,7,8,10a-tetrahydro-6H-dibenzo[b,d]pyran-1-ol; 6,6,9-trimethyl-3-pentyl-6a,7,8,10a-tetrahydro-6H-dibenzo[b,d]pyran-1-ol; 6H-Dibenzo; 6H-Dibenzo[b,d]pyran-1-ol,6a,7,8,10a-tetrahydro-6,6,9-trimethyl-3-pentyl-, (6aR-trans)-; 9-delta-Tetrahydrocannabinol; abbott 40566; Cannabis resin; delta9-Tetrahydrocannabinol; delta-9-THC; Deltanyne; Dronabinol; delta(sup 1)-thc; delta(sup 9)-tetrahydrocannabinol; delta(sup 9)-thc; delta-THC; Ganja; Hashish; L-delta(sup 1)-tetrahydrocannabinol; Marinol; SP 104; Tetrahydro-6,6,9-trimethyl-3-pentyl-6H-dibenzo[b,d]pyran-1-ol; tetrahydrocannabinol; THC; THC-delta-9; trans-delta-9-Tetrahydrocannabinol; trans-tetrahydrocannabinol.

$$$$
685
 

 28 28  0  0  0  0  0  0  0  0999 V2000
   -0.0179    1.4674    0.0101 C   0  0  0  0  0  0  0  0  0  1  0  0
    0.0021   -0.0041    0.0020 C   0  0  0  0  0  0  0  0  0  2  0  0
    1.1797    2.1975    0.0026 C   0  0  0  0  0  0  0  0  0  3  0  0
   -1.2312    2.1625    0.0196 C   0  0  0  0  0  0  0  0  0  4  0  0
   -1.2926   -0.7753    0.0102 C   0  0  0  0  0  0  0  0  0  5  0  0
    1.0602   -0.5960   -0.0113 O   0  0  0  0  0  0  0  0  0  6  0  0
    1.1049    3.5787    0.0108 C   0  0  0  0  0  0  0  0  0  7  0  0
   -1.2477    3.4786    0.0264 N   0  0  0  0  0  0  0  0  0  8  0  0
   -0.9927   -2.2755   -0.0007 C   0  0  0  0  0  0  0  0  0  9  0  0
   -0.1361    4.1902    0.0260 C   0  0  0  0  0  0  0  0  0 10  0  0
   -2.3072   -3.0585    0.0077 C   0  0  0  0  0  0  0  0  0 11  0  0
   -2.0200   -4.4950   -0.0028 N   0  0  3  0  0  0  0  0  0 12  0  0
   -1.9784   -5.1525    1.1062 N   0  0  0  0  0  0  0  0  0 13  0  0
   -1.7800   -5.1848   -1.2728 C   0  0  0  0  0  0  0  0  0 14  0  0
   -1.7396   -6.3469    1.0976 O   0  0  0  0  0  0  0  0  0 15  0  0
    2.1353    1.6944   -0.0089 H   0  0  0  0  0  0  0  0  0 16  0  0
   -2.1622    1.6152    0.0209 H   0  0  0  0  0  0  0  0  0 17  0  0
   -1.8592   -0.5245    0.9070 H   0  0  0  0  0  0  0  0  0 18  0  0
   -1.8762   -0.5150   -0.8728 H   0  0  0  0  0  0  0  0  0 19  0  0
    2.0061    4.1738    0.0057 H   0  0  0  0  0  0  0  0  0 20  0  0
   -0.4261   -2.5263   -0.8975 H   0  0  0  0  0  0  0  0  0 21  0  0
   -0.4091   -2.5358    0.8824 H   0  0  0  0  0  0  0  0  0 22  0  0
   -0.1963    5.2685    0.0324 H   0  0  0  0  0  0  0  0  0 23  0  0
   -2.8737   -2.8077    0.9045 H   0  0  0  0  0  0  0  0  0 24  0  0
   -2.8907   -2.7982   -0.8754 H   0  0  0  0  0  0  0  0  0 25  0  0
   -1.5850   -6.2401   -1.0819 H   0  0  0  0  0  0  0  0  0 26  0  0
   -2.6583   -5.0872   -1.9109 H   0  0  0  0  0  0  0  0  0 27  0  0
   -0.9181   -4.7403   -1.7705 H   0  0  0  0  0  0  0  0  0 28  0  0
  1  2  1  0  0  0  0
  1  3  2  0  0  0  0
  1  4  1  0  0  0  0
  2  5  1  0  0  0  0
  2  6  2  0  0  0  0
  3  7  1  0  0  0  0
  3 16  1  0  0  0  0
  4  8  2  0  0  0  0
  4 17  1  0  0  0  0
  5  9  1  0  0  0  0
  5 18  1  0  0  0  0
  5 19  1  0  0  0  0
  7 10  2  0  0  0  0
  7 20  1  0  0  0  0
  8 10  1  0  0  0  0
  9 11  1  0  0  0  0
  9 21  1  0  0  0  0
  9 22  1  0  0  0  0
 10 23  1  0  0  0  0
 11 12  1  0  0  0  0
 11 24  1  0  0  0  0
 11 25  1  0  0  0  0
 12 13  1  0  0  0  0
 12 14  1  0  0  0  0
 13 15  2  0  0  0  0
 14 26  1  0  0  0  0
 14 27  1  0  0  0  0
 14 28  1  0  0  0  0
M  END
>  <Substance ID> (685)
685

>  <Mouse_Female_Canc> (685)
3

>  <SAL> (685)
3

>  <Rat_Male_Canc> (685)
1

>  <TD50_Rat> (685)
NP

>  <TD50_Mouse> (685)
ND

>  <Rat_Female_Canc> (685)
1

>  <Canc> (685)
3

>  <MolWeight> (685)
207.23

>  <Mouse_Male_Canc> (685)
2

>  <Mouse_Male_NTP> (685)
EE

>  <ChemName> (685)
NNK 

>  <Rat_Male_NTP> (685)
NE

>  <Reference> (685)
NTP440

>  <Formula> (685)
C10H13N3O2 

>  <SMILES> (685)
O=C(C1=CC=CN=C1)CCCN(N=O)C

>  <Rat_Female_NTP> (685)
NE

>  <CAS> (685)
64091-91-4

>  <Mouse_Female_NTP> (685)
SE

>  <Synonyms> (685)
3-(N-methyl-N-nitrosamino)propyl 3-pyridyl ketone; 4-(Methyl-nitrosamino)-1-(3-Pyridyl)-1-butanone; 4-(methylnitrosoamino)-1-(3-pyridinyl)-1-butanone; 4-(nitrosoamino-N-methyl)-1-(3-pyridyl)-1-butanone; 4-(N-Methyl-N-nitrosamino)-1-(3-pyridyl)-1-butanone; 4-(N-methyl-N-nitrosamino)-4-(3-pyridyl)-1-butanone; 4-(N-methyl-N-nitrosoamino)-4-(3-pyridyl)-1-butanone; 4-(N-Nitrosomethylamino)-1-(3-pyridyl)-1-butanone; 4-(N-nitroso-N-methylamino)-1-(3-pyridyl)-1-butanone; ketone, 3-pyridyl 3-(N-methyl-N-nitrosamino)propyl; N-methyl-N-nitroso-4-oxo-4-(3-pyridyl)butylamine.

$$$$
686
 

  5  3  0  0  0  0  0  0  0  0999 V2000
   35.4501  -43.2943   -0.0003 Si  0  0  0  0  0  0  0  0  0  0  0  0
   36.9263  -42.4412    0.0002 O   0  5  0  0  0  0  0  0  0  0  0  0
   33.9731  -42.4425   -0.0003 O   0  5  0  0  0  0  0  0  0  0  0  0
   35.4507  -44.8159   -0.0007 O   0  0  0  0  0  0  0  0  0  0  0  0
   34.9505  -43.6073   -3.4437 Mg  0  2  0  0  0  0  0  0  0  0  0  0
  1  2  1  0  0  0  0
  1  3  1  0  0  0  0
  1  4  2  0  0  0  0
M  END
>  <Substance ID> (686)
686

>  <Mouse_Female_Canc> (686)
1

>  <SAL> (686)
ND

>  <Rat_Male_Canc> (686)
3

>  <TD50_Rat> (686)
ND

>  <TD50_Mouse> (686)
NP

>  <Rat_Female_Canc> (686)
3

>  <Canc> (686)
3

>  <MolWeight> (686)
100.04

>  <Mouse_Male_Canc> (686)
1

>  <Mouse_Male_NTP> (686)
NE

>  <ChemName> (686)
Talc

>  <Rat_Male_NTP> (686)
SE

>  <Reference> (686)
NTP421

>  <Formula> (686)
MgO3Si

>  <SMILES> (686)
[Mg+2].[O-][Si]([O-])=O

>  <Rat_Female_NTP> (686)
CE

>  <CAS> (686)
14807-96-6

>  <Mouse_Female_NTP> (686)
NE

>  <Synonyms> (686)
Fibrous Non-Tremolite Talc; french chalk; Hydrous magnesium silicate; Magnesium silicate talc; mineral graphite; non-asbestiform talc; non-fibrous talc; Silica,talc, non-asbestos form; steatite; Steatite talc; Talc (containing no asbestos); Talc (containing no asbestos fibres); Talc (Mg3H2(SiO3)4); Talc, non-asbestos form; talc, non-asbestos form, silica; Talcum.

$$$$
687
 

 11 11  0  0  0  0  0  0  0  0999 V2000
   39.3279  -73.7175    0.0004 O   0  0  0  0  0  0  0  0  0  0  0  0
   40.4409  -72.8501    0.0001 C   0  0  0  0  0  0  0  0  0  0  0  0
   40.1033  -71.5693   -0.0004 C   0  0  0  0  0  0  0  0  0  0  0  0
   38.6777  -71.5328   -0.0004 C   0  0  0  0  0  0  0  0  0  0  0  0
   38.2458  -72.7916    0.0000 C   0  0  0  0  0  0  0  0  0  0  0  0
   41.8248  -73.3169    0.0001 C   0  0  0  0  0  0  0  0  0  0  0  0
   42.7497  -72.4980   -0.0013 O   0  0  0  0  0  0  0  0  0  0  0  0
   40.7237  -70.7850   -0.0006 H   0  0  0  0  0  0  0  0  0  0  0  0
   38.1071  -70.7116   -0.0007 H   0  0  0  0  0  0  0  0  0  0  0  0
   37.2810  -73.0547    0.0000 H   0  0  0  0  0  0  0  0  0  0  0  0
   42.0231  -74.2970    0.0011 H   0  0  0  0  0  0  0  0  0  0  0  0
  4  5  2  0  0  0  0
  2  3  2  0  0  0  0
  1  2  1  0  0  0  0
  3  4  1  0  0  0  0
  5  1  1  0  0  0  0
  2  6  1  0  0  0  0
  6  7  2  0  0  0  0
  3  8  1  0  0  0  0
  4  9  1  0  0  0  0
  5 10  1  0  0  0  0
  6 11  1  0  0  0  0
M  END
>  <Substance ID> (687)
687

>  <Mouse_Female_Canc> (687)
3

>  <SAL> (687)
2

>  <Rat_Male_Canc> (687)
3

>  <TD50_Rat> (687)
683

>  <TD50_Mouse> (687)
197

>  <Rat_Female_Canc> (687)
1

>  <Canc> (687)
3

>  <MolWeight> (687)
96.09

>  <Mouse_Male_Canc> (687)
3

>  <Mouse_Male_NTP> (687)
CE

>  <ChemName> (687)
Furfural

>  <Rat_Male_NTP> (687)
SE

>  <Reference> (687)
NTP382

>  <Formula> (687)
C5H4O2

>  <SMILES> (687)
O=CC1=CC=CO1

>  <Rat_Female_NTP> (687)
NE

>  <CAS> (687)
98-01-1

>  <Mouse_Female_NTP> (687)
SE

>  <Synonyms> (687)
2-Formyl furan; 2-Furaldehyde; 2-furanaldehyde; 2-furancarbonal; 2-furancarboxaldehyde; 2-furfural; 2-furylmethanal; alpha-Furfuraldehyde; alpha-furole; artificial ant oil; artificial oil of ants; Fufural; Fural; Furaldehyde; Furfuraldehyde; Pyromucic aldehyde; U1199.

$$$$
688
 

 42 44  0  0  0  0  0  0  0  0999 V2000
   -0.0218    1.7577    0.0117 C   0  0  0  0  0  0  0  0  0  1  0  0
    0.0021   -0.0041    0.0020 S   0  0  3  0  0  0  0  0  0  2  0  0
    1.1691    2.4625    0.0041 C   0  0  0  0  0  0  0  0  0  3  0  0
   -1.2315    2.4299    0.0211 C   0  0  0  0  0  0  0  0  0  4  0  0
    0.0239   -0.5076    1.5795 N   0  0  3  0  0  0  0  0  0  5  0  0
   -1.2601   -0.4045   -0.5137 O   0  0  0  0  0  0  0  0  0  6  0  0
    1.2647   -0.3701   -0.5376 O   0  0  0  0  0  0  0  0  0  7  0  0
    1.1582    3.8416    0.0116 C   0  0  0  0  0  0  0  0  0  8  0  0
   -1.2580    3.8087    0.0283 C   0  0  0  0  0  0  0  0  0  9  0  0
   -1.0630   -0.2492    2.4066 C   0  0  0  0  0  0  0  0  0 10  0  0
   -0.0594    4.5272    0.0265 C   0  0  0  0  0  0  0  0  0 11  0  0
   -1.0381   -0.6750    3.7310 C   0  0  0  0  0  0  0  0  0 12  0  0
   -2.1103    0.4048    1.9287 N   0  0  0  0  0  0  0  0  0 13  0  0
   -0.0779    5.8942    0.0340 N   0  0  0  0  0  0  0  0  0 14  0  0
   -2.1261   -0.4107    4.5429 C   0  0  0  0  0  0  0  0  0 15  0  0
   -3.1619    0.6708    2.6803 C   0  0  0  0  0  0  0  0  0 16  0  0
   -1.2037    6.5240    0.0477 N   0  0  0  0  0  0  0  0  0 17  0  0
   -3.2067    0.2732    4.0013 C   0  0  0  0  0  0  0  0  0 18  0  0
   -1.2222    7.8894    0.0553 C   0  0  0  0  0  0  0  0  0 19  0  0
   -2.4391    8.5704    0.0701 C   0  0  0  0  0  0  0  0  0 20  0  0
   -0.0190    8.6064    0.0540 C   0  0  0  0  0  0  0  0  0 21  0  0
   -2.4512    9.9638    0.0777 C   0  0  0  0  0  0  0  0  0 22  0  0
   -0.0322    9.9830    0.0615 C   0  0  0  0  0  0  0  0  0 23  0  0
   -1.2385   10.6715    0.0704 C   0  0  0  0  0  0  0  0  0 24  0  0
   -3.7330   10.6925    0.0929 C   0  0  0  0  0  0  0  0  0 25  0  0
   -1.2449   12.0268    0.0778 O   0  0  0  0  0  0  0  0  0 26  0  0
   -4.8953   10.0110    0.0994 O   0  0  0  0  0  0  0  0  0 27  0  0
   -3.7410   11.9075    0.0995 O   0  0  0  0  0  0  0  0  0 28  0  0
    2.1094    1.9313   -0.0074 H   0  0  0  0  0  0  0  0  0 29  0  0
   -2.1570    1.8733    0.0225 H   0  0  0  0  0  0  0  0  0 30  0  0
    0.7951   -0.9829    1.9262 H   0  0  0  0  0  0  0  0  0 31  0  0
    2.0884    4.3903    0.0064 H   0  0  0  0  0  0  0  0  0 32  0  0
   -2.2028    4.3320    0.0352 H   0  0  0  0  0  0  0  0  0 33  0  0
   -0.1811   -1.2050    4.1195 H   0  0  0  0  0  0  0  0  0 34  0  0
   -2.1353   -0.7293    5.5748 H   0  0  0  0  0  0  0  0  0 35  0  0
   -3.9982    1.2069    2.2564 H   0  0  0  0  0  0  0  0  0 36  0  0
   -4.0717    0.4952    4.6087 H   0  0  0  0  0  0  0  0  0 37  0  0
   -3.3683    8.0201    0.0753 H   0  0  0  0  0  0  0  0  0 38  0  0
    0.9225    8.0774    0.0474 H   0  0  0  0  0  0  0  0  0 39  0  0
    0.8991   10.5298    0.0605 H   0  0  0  0  0  0  0  0  0 40  0  0
   -1.2378   12.3013    1.0050 H   0  0  0  0  0  0  0  0  0 41  0  0
   -5.7359   10.4888    0.1094 H   0  0  0  0  0  0  0  0  0 42  0  0
  1  2  1  0  0  0  0
  1  3  1  0  0  0  0
  1  4  2  0  0  0  0
  2  5  1  0  0  0  0
  2  6  2  0  0  0  0
  2  7  2  0  0  0  0
  3  8  2  0  0  0  0
  3 29  1  0  0  0  0
  4  9  1  0  0  0  0
  4 30  1  0  0  0  0
  5 10  1  0  0  0  0
  5 31  1  0  0  0  0
  8 11  1  0  0  0  0
  8 32  1  0  0  0  0
  9 11  2  0  0  0  0
  9 33  1  0  0  0  0
 10 12  1  0  0  0  0
 10 13  2  0  0  0  0
 11 14  1  0  0  0  0
 12 15  2  0  0  0  0
 12 34  1  0  0  0  0
 13 16  1  0  0  0  0
 14 17  2  0  0  0  0
 15 18  1  0  0  0  0
 15 35  1  0  0  0  0
 16 18  2  0  0  0  0
 16 36  1  0  0  0  0
 17 19  1  0  0  0  0
 18 37  1  0  0  0  0
 19 20  1  0  0  0  0
 19 21  2  0  0  0  0
 20 22  2  0  0  0  0
 20 38  1  0  0  0  0
 21 23  1  0  0  0  0
 21 39  1  0  0  0  0
 22 24  1  0  0  0  0
 22 25  1  0  0  0  0
 23 24  2  0  0  0  0
 23 40  1  0  0  0  0
 24 26  1  0  0  0  0
 25 27  1  0  0  0  0
 25 28  2  0  0  0  0
 26 41  1  0  0  0  0
 27 42  1  0  0  0  0
M  END
>  <Substance ID> (688)
688

>  <Mouse_Female_Canc> (688)
3

>  <SAL> (688)
1

>  <Rat_Male_Canc> (688)
3

>  <TD50_Rat> (688)
ND

>  <TD50_Mouse> (688)
ND

>  <Rat_Female_Canc> (688)
3

>  <Canc> (688)
3

>  <MolWeight> (688)
398.40

>  <Mouse_Male_Canc> (688)
3

>  <Mouse_Male_NTP> (688)
CE

>  <ChemName> (688)
Salicylazosulfapyridine

>  <Rat_Male_NTP> (688)
SE

>  <Reference> (688)
NTP457

>  <Formula> (688)
C18H14N4O5S

>  <SMILES> (688)
OC(=O)c3cc(N=Nc1ccc(cc1)S(=O)(=O)Nc2ccccn2)ccc3O

>  <Rat_Female_NTP> (688)
SE

>  <CAS> (688)
599-79-1

>  <Mouse_Female_NTP> (688)
CE

>  <Synonyms> (688)
2-Hydroxy-5-[[4-[(2-pyridinylamino)sulfonyl]phenyl]azo]benzoic acid; 5-(para-(2-pyridylsulfamoyl)phenylazo)salicylic acid; accucol; asulfidine; azopyrin; Azulfidine; rorasul; salazopyrin; Salazopyrin en-tabs; salazosulfapyridine; s.a.s.-500; SASP; sulcolon; Sulfasalazine; w-t sasp oral.

$$$$
689
 

 13 12  0  0  0  0  0  0  0  0999 V2000
   21.5368  -58.1527    0.0292 C   0  0  0  0  0  0  0  0  0  0  0  0
   23.0182  -57.7438   -0.4959 N   0  3  0  0  0  0  0  0  0  0  0  0
   20.4592  -58.3099   -1.1568 N   0  3  0  0  0  0  0  0  0  0  0  0
   21.6495  -59.5930    0.7557 N   0  3  0  0  0  0  0  0  0  0  0  0
   21.0314  -56.9337    0.9282 N   0  3  0  0  0  0  0  0  0  0  0  0
   21.0704  -55.6223    0.4702 O   0  5  0  0  0  0  0  0  0  0  0  0
   20.5854  -57.0845    2.0338 O   0  0  0  0  0  0  0  0  0  0  0  0
   23.6888  -58.4170   -1.4983 O   0  5  0  0  0  0  0  0  0  0  0  0
   23.6332  -56.8537    0.0193 O   0  0  0  0  0  0  0  0  0  0  0  0
   20.6515  -60.1024    1.5737 O   0  5  0  0  0  0  0  0  0  0  0  0
   22.5899  -60.3056    0.5984 O   0  0  0  0  0  0  0  0  0  0  0  0
   19.7105  -57.2445   -1.6293 O   0  5  0  0  0  0  0  0  0  0  0  0
   20.1838  -59.3724   -1.6306 O   0  0  0  0  0  0  0  0  0  0  0  0
  1  2  1  0  0  0  0
  1  3  1  0  0  0  0
  1  4  1  0  0  0  0
  1  5  1  0  0  0  0
  5  6  1  0  0  0  0
  5  7  2  0  0  0  0
  2  8  1  0  0  0  0
  2  9  2  0  0  0  0
  4 10  1  0  0  0  0
  4 11  2  0  0  0  0
  3 12  1  0  0  0  0
  3 13  2  0  0  0  0
M  END
>  <Substance ID> (689)
689

>  <Mouse_Female_Canc> (689)
3

>  <SAL> (689)
3

>  <Rat_Male_Canc> (689)
3

>  <TD50_Rat> (689)
0.447

>  <TD50_Mouse> (689)
1.19

>  <Rat_Female_Canc> (689)
3

>  <Canc> (689)
3

>  <MolWeight> (689)
196.03

>  <Mouse_Male_Canc> (689)
3

>  <Mouse_Male_NTP> (689)
CE

>  <ChemName> (689)
Tetranitromethane

>  <Rat_Male_NTP> (689)
CE

>  <Reference> (689)
NTP386

>  <Formula> (689)
CN4O8

>  <SMILES> (689)
O=[N+](C([N+](=O)[O-])([N+](=O)[O-])[N+](=O)[O-])[O-]

>  <Rat_Female_NTP> (689)
CE

>  <CAS> (689)
509-14-8

>  <Mouse_Female_NTP> (689)
CE

>  <Synonyms> (689)
Tetan; TNM.

$$$$
690
 

 43 46  0  0  0  0  0  0  0  0999 V2000
   -0.2435   -0.5269   -4.2639 C   0  0  0  0  0  0  0  0  0  1  0  0
    1.1100   -0.0119   -4.2100 N   0  0  0  0  0  0  0  0  0  2  0  0
    2.0714   -0.7906   -3.4422 C   0  0  1  0  0  0  0  0  0  3  0  0
    1.2700    1.3276   -3.6608 C   0  0  2  0  0  0  0  0  0  4  0  0
    3.3105    0.1030   -3.4937 C   0  0  2  0  0  0  0  0  0  5  0  0
    1.6148   -0.9679   -1.9808 C   0  0  0  0  0  0  0  0  0  6  0  0
    2.7912    1.4772   -3.6387 C   0  0  2  0  0  0  0  0  0  7  0  0
    0.7139    1.4173   -2.2260 C   0  0  0  0  0  0  0  0  0  8  0  0
    3.5490    0.8589   -4.6958 O   0  0  0  0  0  0  0  0  0  9  0  0
    1.3736    0.3857   -1.2973 C   0  0  0  0  0  0  0  0  0 10  0  0
    0.5773    0.1773   -0.1443 O   0  0  0  0  0  0  0  0  0 11  0  0
    0.5941    1.1333    0.8224 C   0  0  0  0  0  0  0  0  0 12  0  0
   -0.4755    0.8445    1.8681 C   0  0  1  0  0  0  0  0  0 13  0  0
    1.3094    2.1078    0.8264 O   0  0  0  0  0  0  0  0  0 14  0  0
   -0.1057   -0.3593    2.7350 C   0  0  0  0  0  0  0  0  0 15  0  0
   -0.8074    2.1063    2.6430 C   0  0  0  0  0  0  0  0  0 16  0  0
   -1.1092   -0.5372    3.7358 O   0  0  0  0  0  0  0  0  0 17  0  0
   -1.6990    3.0369    2.0942 C   0  0  0  0  0  0  0  0  0 18  0  0
   -0.2605    2.3871    3.9012 C   0  0  0  0  0  0  0  0  0 19  0  0
   -2.0588    4.1944    2.7864 C   0  0  0  0  0  0  0  0  0 20  0  0
   -0.6230    3.5367    4.6057 C   0  0  0  0  0  0  0  0  0 21  0  0
   -1.5277    4.4428    4.0521 C   0  0  0  0  0  0  0  0  0 22  0  0
   -0.8749    0.1447   -4.8894 H   0  0  0  0  0  0  0  0  0 23  0  0
   -0.7310   -0.6267   -3.2725 H   0  0  0  0  0  0  0  0  0 24  0  0
   -0.2431   -1.5300   -4.7482 H   0  0  0  0  0  0  0  0  0 25  0  0
    2.2696   -1.7652   -3.9444 H   0  0  0  0  0  0  0  0  0 26  0  0
    0.8068    2.0840   -4.3362 H   0  0  0  0  0  0  0  0  0 27  0  0
    4.2375   -0.1590   -2.9824 H   0  0  0  0  0  0  0  0  0 28  0  0
    2.3882   -1.5391   -1.4144 H   0  0  0  0  0  0  0  0  0 29  0  0
    0.6962   -1.5947   -1.9344 H   0  0  0  0  0  0  0  0  0 30  0  0
    3.2822    2.3700   -3.2500 H   0  0  0  0  0  0  0  0  0 31  0  0
   -0.3918    1.2854   -2.2375 H   0  0  0  0  0  0  0  0  0 32  0  0
    0.8806    2.4481   -1.8348 H   0  0  0  0  0  0  0  0  0 33  0  0
    2.3749    0.7664   -0.9802 H   0  0  0  0  0  0  0  0  0 34  0  0
   -1.4067    0.5632    1.3142 H   0  0  0  0  0  0  0  0  0 35  0  0
    0.8766   -0.2341    3.2404 H   0  0  0  0  0  0  0  0  0 36  0  0
   -0.0617   -1.2968    2.1357 H   0  0  0  0  0  0  0  0  0 37  0  0
   -0.9196   -1.3264    4.2100 H   0  0  0  0  0  0  0  0  0 38  0  0
   -2.1351    2.8573    1.0981 H   0  0  0  0  0  0  0  0  0 39  0  0
    0.4641    1.7029    4.3675 H   0  0  0  0  0  0  0  0  0 40  0  0
   -2.7669    4.9091    2.3367 H   0  0  0  0  0  0  0  0  0 41  0  0
   -0.1919    3.7317    5.6011 H   0  0  0  0  0  0  0  0  0 42  0  0
   -1.8145    5.3507    4.6065 H   0  0  0  0  0  0  0  0  0 43  0  0
  1  2  1  0  0  0  0
  1 23  1  6  0  0  0
  1 24  1  1  0  0  0
  1 25  1  0  0  0  0
  2  3  1  1  0  0  0
  2  4  1  0  0  0  0
  3  5  1  0  0  0  0
  3  6  1  1  0  0  0
  3 26  1  6  0  0  0
  4  7  1  0  0  0  0
  4  8  1  1  0  0  0
  4 27  1  6  0  0  0
  5  7  1  0  0  0  0
  5  9  1  6  0  0  0
  5 28  1  1  0  0  0
  6 10  1  0  0  0  0
  6 29  1  1  0  0  0
  6 30  1  0  0  0  0
  7  9  1  6  0  0  0
  7 31  1  0  0  0  0
  8 10  1  1  0  0  0
  8 32  1  0  0  0  0
  8 33  1  0  0  0  0
 10 11  1  1  0  0  0
 10 34  1  0  0  0  0
 11 12  1  1  0  0  0
 12 13  1  1  0  0  0
 12 14  2  0  0  0  0
 13 15  1  1  0  0  0
 13 16  1  1  0  0  0
 13 35  1  6  0  0  0
 15 17  1  1  0  0  0
 15 36  1  1  0  0  0
 15 37  1  6  0  0  0
 16 18  2  0  0  0  0
 16 19  1  1  0  0  0
 17 38  1  1  0  0  0
 18 20  1  1  0  0  0
 18 39  1  6  0  0  0
 19 21  2  0  0  0  0
 19 40  1  0  0  0  0
 20 22  2  0  0  0  0
 20 41  1  0  0  0  0
 21 22  1  0  0  0  0
 21 42  1  1  0  0  0
 22 43  1  1  0  0  0
M  END
>  <Substance ID> (690)
690

>  <Mouse_Female_Canc> (690)
1

>  <SAL> (690)
1

>  <Rat_Male_Canc> (690)
1

>  <TD50_Rat> (690)
NP

>  <TD50_Mouse> (690)
NP

>  <Rat_Female_Canc> (690)
1

>  <Canc> (690)
1

>  <MolWeight> (690)
438.32

>  <Mouse_Male_Canc> (690)
1

>  <Mouse_Male_NTP> (690)
NE

>  <ChemName> (690)
Scopolamine hydrobromide trihydrate

>  <Rat_Male_NTP> (690)
NE

>  <Reference> (690)
NTP445

>  <Formula> (690)
C17H21NO4.HBr.3H2O

>  <SMILES> (690)
O=C(O[C@@H]1[C@H2][C@@H]2[N@@]([C@H]([C@@H2]1)[C@H]3O[C@@H]23)[C@@H3])[C@H](c4ccccc4)[C@@H2]O.[Br].[O].[O].[O]

>  <Rat_Female_NTP> (690)
NE

>  <CAS> (690)
6533-68-2

>  <Mouse_Female_NTP> (690)
NE

>  <Synonyms> (690)
Atroscine hydrobromide trihydrate; hyoscine hydrobromide trihydrate; Scopolamine hydrobromidetrihydrate; scopolammonium bromide trihydrate.

$$$$
691
 

 32 33  0  0  0  0  0  0  0  0999 V2000
    4.5027   -8.8306    0.0007 C   0  0  0  0  0  0  0  0  0  0  0  0
    5.1512   -9.9940    0.0001 C   0  0  0  0  0  0  0  0  0  0  0  0
    7.3004   -8.8703    0.0001 C   0  0  0  0  0  0  0  0  0  0  0  0
    6.5827   -7.5948   -0.0010 C   0  0  0  0  0  0  0  0  0  0  0  0
    6.6192  -10.0154    0.0001 C   0  0  0  0  0  0  0  0  0  0  0  0
    5.2521   -7.5755    0.0005 C   0  0  0  0  0  0  0  0  0  0  0  0
    8.7677   -8.8785    0.0005 C   0  0  0  0  0  0  0  0  0  0  0  0
    9.4376  -10.0306    0.0001 C   0  0  0  0  0  0  0  0  0  0  0  0
   11.5666   -8.8681    0.0002 C   0  0  0  0  0  0  0  0  0  0  0  0
   10.8295   -7.6055    0.0001 C   0  0  0  0  0  0  0  0  0  0  0  0
   10.9055  -10.0241   -0.0000 C   0  0  0  0  0  0  0  0  0  0  0  0
    9.4984   -7.6097    0.0000 C   0  0  0  0  0  0  0  0  0  0  0  0
    4.3793  -11.2813   -0.0003 C   0  0  0  0  0  0  0  0  0  0  0  0
    3.1053   -8.8081    0.0010 N   0  0  0  0  0  0  0  0  0  0  0  0
   11.6635  -11.3199    0.0002 C   0  0  0  0  0  0  0  0  0  0  0  0
   12.9632   -8.8608    0.0000 N   0  0  0  0  0  0  0  0  0  0  0  0
    7.0937   -6.7353   -0.0028 H   0  0  0  0  0  0  0  0  0  0  0  0
    7.1072  -10.8883    0.0002 H   0  0  0  0  0  0  0  0  0  0  0  0
    4.7648   -6.7022    0.0014 H   0  0  0  0  0  0  0  0  0  0  0  0
    8.9408  -10.8984    0.0000 H   0  0  0  0  0  0  0  0  0  0  0  0
   11.3260   -6.7375    0.0001 H   0  0  0  0  0  0  0  0  0  0  0  0
    8.9965   -6.7447   -0.0003 H   0  0  0  0  0  0  0  0  0  0  0  0
    5.0160  -12.0523   -0.0008 H   0  0  0  0  0  0  0  0  0  0  0  0
    3.8032  -11.3249   -0.8166 H   0  0  0  0  0  0  0  0  0  0  0  0
    3.8036  -11.3256    0.8162 H   0  0  0  0  0  0  0  0  0  0  0  0
    2.6194   -7.9341    0.0015 H   0  0  0  0  0  0  0  0  0  0  0  0
    2.5914   -9.6659    0.0007 H   0  0  0  0  0  0  0  0  0  0  0  0
   12.6457  -11.1320    0.0000 H   0  0  0  0  0  0  0  0  0  0  0  0
   11.4252  -11.8461   -0.8161 H   0  0  0  0  0  0  0  0  0  0  0  0
   11.4254  -11.8458    0.8167 H   0  0  0  0  0  0  0  0  0  0  0  0
   13.4677   -9.7242    0.0001 H   0  0  0  0  0  0  0  0  0  0  0  0
   13.4587   -7.9922   -0.0001 H   0  0  0  0  0  0  0  0  0  0  0  0
  1  2  2  0  0  0  0
  3  4  1  0  0  0  0
  1  6  1  0  0  0  0
  2  5  1  0  0  0  0
  5  3  2  0  0  0  0
  4  6  2  0  0  0  0
  3  7  1  0  0  0  0
  7  8  2  0  0  0  0
  9 10  1  0  0  0  0
  7 12  1  0  0  0  0
  8 11  1  0  0  0  0
 11  9  2  0  0  0  0
 10 12  2  0  0  0  0
  2 13  1  0  0  0  0
  1 14  1  0  0  0  0
 11 15  1  0  0  0  0
  9 16  1  0  0  0  0
  4 17  1  0  0  0  0
  5 18  1  0  0  0  0
  6 19  1  0  0  0  0
  8 20  1  0  0  0  0
 10 21  1  0  0  0  0
 12 22  1  0  0  0  0
 13 23  1  0  0  0  0
 13 24  1  0  0  0  0
 13 25  1  0  0  0  0
 14 26  1  0  0  0  0
 14 27  1  0  0  0  0
 15 28  1  0  0  0  0
 15 29  1  0  0  0  0
 15 30  1  0  0  0  0
 16 31  1  0  0  0  0
 16 32  1  0  0  0  0
M  END
>  <Substance ID> (691)
691

>  <Mouse_Female_Canc> (691)
1

>  <SAL> (691)
3

>  <Rat_Male_Canc> (691)
3

>  <TD50_Rat> (691)
0.629

>  <TD50_Mouse> (691)
28.6

>  <Rat_Female_Canc> (691)
3

>  <Canc> (691)
3

>  <MolWeight> (691)
212.29

>  <Mouse_Male_Canc> (691)
3

>  <Mouse_Male_NTP> (691)
ND

>  <ChemName> (691)
3,3'-Dimethylbenzidine Dihydrochloride

>  <Rat_Male_NTP> (691)
CE

>  <Reference> (691)
NTP390

>  <Formula> (691)
C14H16N2

>  <SMILES> (691)
C1(C2=CC(=C(N)C=C2)C)(=CC(=C(N)C=C1)C)

>  <Rat_Female_NTP> (691)
CE

>  <CAS> (691)
612-82-8

>  <Mouse_Female_NTP> (691)
ND

>  <Synonyms> (691)
o-Tolidine dihydrochloride; 3,3'-dimethyl-[1,1'-biphenyl]-4,4'-diamine, dihydrochloride.

$$$$
692
 

 21 21  0  0  0  0  0  0  0  0999 V2000
    5.4793  -28.1205    0.0048 C   0  0  0  0  0  0  0  0  0  0  0  0
    5.4875  -29.4521   -0.0492 C   0  0  0  0  0  0  0  0  0  0  0  0
    7.9100  -29.5039   -0.0509 C   0  0  0  0  0  0  0  0  0  0  0  0
    7.9004  -28.0396    0.0088 C   0  0  0  0  0  0  0  0  0  0  0  0
    6.7603  -30.1750   -0.0786 C   0  0  0  0  0  0  0  0  0  0  0  0
    6.7431  -27.3809    0.0359 C   0  0  0  0  0  0  0  0  0  0  0  0
    6.7324  -25.6097    0.1123 S   0  0  0  0  0  0  0  0  0  0  0  0
    6.6295  -24.9914   -1.4694 O   0  5  0  0  0  0  0  0  0  0  0  0
    5.5213  -25.1392    0.8955 O   0  0  0  0  0  0  0  0  0  0  0  0
    8.0164  -25.1148    0.7508 O   0  0  0  0  0  0  0  0  0  0  0  0
    4.1926  -30.2091   -0.0800 C   0  0  0  0  0  0  0  0  0  0  0  0
    9.2141  -30.2446   -0.0809 C   0  0  0  0  0  0  0  0  0  0  0  0
    4.6101  -27.6263    0.0240 H   0  0  0  0  0  0  0  0  0  0  0  0
    8.7634  -27.5347    0.0293 H   0  0  0  0  0  0  0  0  0  0  0  0
    6.7662  -31.1741   -0.1195 H   0  0  0  0  0  0  0  0  0  0  0  0
    4.3805  -31.1905   -0.1197 H   0  0  0  0  0  0  0  0  0  0  0  0
    3.6665  -29.9380   -0.8861 H   0  0  0  0  0  0  0  0  0  0  0  0
    3.6664  -30.0042    0.7454 H   0  0  0  0  0  0  0  0  0  0  0  0
    9.0384  -31.2282   -0.1211 H   0  0  0  0  0  0  0  0  0  0  0  0
    9.7370  -30.0334    0.7450 H   0  0  0  0  0  0  0  0  0  0  0  0
    9.7374  -29.9668   -0.8865 H   0  0  0  0  0  0  0  0  0  0  0  0
  1  2  2  0  0  0  0
  3  4  1  0  0  0  0
  1  6  1  0  0  0  0
  2  5  1  0  0  0  0
  5  3  2  0  0  0  0
  4  6  2  0  0  0  0
  6  7  1  0  0  0  0
  7  8  1  0  0  0  0
  7  9  2  0  0  0  0
  7 10  2  0  0  0  0
  2 11  1  0  0  0  0
  3 12  1  0  0  0  0
  1 13  1  0  0  0  0
  4 14  1  0  0  0  0
  5 15  1  0  0  0  0
 11 16  1  0  0  0  0
 11 17  1  0  0  0  0
 11 18  1  0  0  0  0
 12 19  1  0  0  0  0
 12 20  1  0  0  0  0
 12 21  1  0  0  0  0
M  END
>  <Substance ID> (692)
692

>  <Mouse_Female_Canc> (692)
1

>  <SAL> (692)
1

>  <Rat_Male_Canc> (692)
1

>  <TD50_Rat> (692)
NP

>  <TD50_Mouse> (692)
NP

>  <Rat_Female_Canc> (692)
1

>  <Canc> (692)
1

>  <MolWeight> (692)
208.21

>  <Mouse_Male_Canc> (692)
1

>  <Mouse_Male_NTP> (692)
NE

>  <ChemName> (692)
Sodium Xylenesulfonate

>  <Rat_Male_NTP> (692)
NE

>  <Reference> (692)
NTP464

>  <Formula> (692)
C8H9O3SNa

>  <SMILES> (692)
[Na+].[O-]S(=O)(=O)c1cc(C)cc(C)c1

>  <Rat_Female_NTP> (692)
NE

>  <CAS> (692)
1300-72-7

>  <Mouse_Female_NTP> (692)
NE

>  <Synonyms> (692)
Alkatrope sx-40; calsoft sxs 96; carsosulf sxs; conco sxs; cyclophil sxs30; eltesol sx 30; eltesol sx93; hydrotrope; naxonate; naxonate g; reworyl nxs40; richonate sxs; Sodium m-xylenesulfonate; sodium dimethylbenzenesulfonate; dimethylbenzenesulfonic acid, sodium salt; xylenesulfonic acid, sodium salt; stepanate x; surco sxs; ultrawet 40sx; witconate sxs.

$$$$
693


 31 33  0  0  0  0  0  0  0  0999 V2000
   -0.0158    3.8260   -0.6436 Cl  0  0  0  0  0  0  0  0  0  1  0  0
    0.8273    2.3548   -0.3244 C   0  0  0  0  0  0  0  0  0  2  0  0
    0.1185    1.1771   -0.0775 C   0  0  0  0  0  0  0  0  0  3  0  0
    2.2217    2.3300   -0.3549 C   0  0  0  0  0  0  0  0  0  4  0  0
    0.7781   -0.0374    0.1687 C   0  0  0  0  0  0  0  0  0  5  0  0
    2.8889    1.1375   -0.0730 C   0  0  0  0  0  0  0  0  0  6  0  0
   -0.0381   -1.2862    0.1818 C   0  0  0  0  0  0  0  0  0  7  0  0
    2.1805   -0.0278    0.2432 C   0  0  0  0  0  0  0  0  0  8  0  0
    0.1700   -2.3071    0.9280 N   0  0  0  0  0  0  0  0  0  9  0  0
   -1.1394   -1.4416   -0.8055 C   0  0  0  0  0  0  0  0  0 10  0  0
    2.9304   -1.1032    0.5465 N   0  0  0  0  0  0  0  0  0 11  0  0
    1.2651   -2.2424    1.9080 C   0  0  2  0  0  0  0  0  0 12  0  0
   -2.2409   -2.2707   -0.5405 C   0  0  0  0  0  0  0  0  0 13  0  0
   -1.0884   -0.8010   -2.0545 C   0  0  0  0  0  0  0  0  0 14  0  0
    2.6084   -2.2396    1.2092 C   0  0  0  0  0  0  0  0  0 15  0  0
    1.2780   -3.3840    2.7768 O   0  0  0  0  0  0  0  0  0 16  0  0
   -3.2608   -2.4412   -1.4793 C   0  0  0  0  0  0  0  0  0 17  0  0
   -2.1083   -0.9636   -2.9940 C   0  0  0  0  0  0  0  0  0 18  0  0
    3.3792   -3.1574    1.3472 O   0  0  0  0  0  0  0  0  0 19  0  0
   -3.2000   -1.7841   -2.7093 C   0  0  0  0  0  0  0  0  0 20  0  0
   -0.9837    1.2029   -0.1066 H   0  0  0  0  0  0  0  0  0 21  0  0
    2.7989    3.2415   -0.5780 H   0  0  0  0  0  0  0  0  0 22  0  0
    3.9916    1.1348   -0.0680 H   0  0  0  0  0  0  0  0  0 23  0  0
    3.9117   -0.9491    0.3730 H   0  0  0  0  0  0  0  0  0 24  0  0
    1.1456   -1.3413    2.5525 H   0  0  0  0  0  0  0  0  0 25  0  0
   -2.3274   -2.8033    0.4210 H   0  0  0  0  0  0  0  0  0 26  0  0
   -0.2213   -0.1827   -2.3374 H   0  0  0  0  0  0  0  0  0 27  0  0
    1.9912   -3.9287    2.4797 H   0  0  0  0  0  0  0  0  0 28  0  0
   -4.1161   -3.0988   -1.2523 H   0  0  0  0  0  0  0  0  0 29  0  0
   -2.0395   -0.4589   -3.9714 H   0  0  0  0  0  0  0  0  0 30  0  0
   -3.9994   -1.9250   -3.4544 H   0  0  0  0  0  0  0  0  0 31  0  0
  1  2  1  0  0  0  0
  2  3  2  0  0  0  0
  2  4  1  0  0  0  0
  3  5  1  0  0  0  0
  3 21  1  0  0  0  0
  4  6  2  0  0  0  0
  4 22  1  0  0  0  0
  5  7  1  0  0  0  0
  5  8  2  0  0  0  0
  6  8  1  0  0  0  0
  6 23  1  0  0  0  0
  7  9  2  0  0  0  0
  7 10  1  6  0  0  0
  8 11  1  0  0  0  0
  9 12  1  1  0  0  0
 10 13  2  0  0  0  0
 10 14  1  6  0  0  0
 11 15  1  1  0  0  0
 11 24  1  0  0  0  0
 12 15  1  6  0  0  0
 12 16  1  1  0  0  0
 12 25  1  1  0  0  0
 13 17  1  6  0  0  0
 13 26  1  1  0  0  0
 14 18  2  0  0  0  0
 14 27  1  0  0  0  0
 15 19  2  0  0  0  0
 16 28  1  0  0  0  0
 17 20  2  0  0  0  0
 17 29  1  0  0  0  0
 18 20  1  0  0  0  0
 18 30  1  6  0  0  0
 20 31  1  6  0  0  0
M  END
>  <Substance ID> (693)
693

>  <Mouse_Female_Canc> (693)
3

>  <SAL> (693)
1

>  <Rat_Male_Canc> (693)
2

>  <TD50_Rat> (693)
NP

>  <TD50_Mouse> (693)
35.8

>  <Rat_Female_Canc> (693)
1

>  <Canc> (693)
3

>  <MolWeight> (693)
286.72

>  <Mouse_Male_Canc> (693)
3

>  <Mouse_Male_NTP> (693)
CE

>  <ChemName> (693)
Oxazepam

>  <Rat_Male_NTP> (693)
EE

>  <Reference> (693)
NTP443 & NTP468

>  <Formula> (693)
C15H11ClN2O2

>  <SMILES> (693)
Clc3cc\1c([N@H]C(=O)[C@H](O)/N=C/1c2ccccc2)cc3

>  <Rat_Female_NTP> (693)
NE

>  <CAS> (693)
604-75-1

>  <Mouse_Female_NTP> (693)
CE

>  <Synonyms> (693)
7-Chloro-1,3-dihydro-3-hydroxy-5-phenyl-2H-1,4-benzodiazepin-2-one; 7-chloro-3-hydroxy-5-phenyl-1,3-dihydro-2H-1,4-benzodiazepin-2-one; Noctazepam; notaral; nozepam; OX; Oxanid; Oxa-Puren; oxazepam; pacienx; Praxiten; Propax; psicopax; psiquiwas; QUEN; Quilibrex; ro 5-6789; Rondar; Serax; Serenal; Serenid; serenid-d; Serepax; Seresta; serpax; Sigacalm; Sobril; tarchomin; Tazepam; tranquo-buscopan-wirkstoff; Uskan; Vaben; wy-3498; Z10-TR; Zaxopam; Abboxampam; Adumbran; Alepam; ansiolisina; ansioxacepam; anxiolit; anxiolit retard; Aplakil; Apo-astress; Azutranguil; Azutranquil; Bonare; drimuel; droxacepam; Durazepam; Enidrel; Hilong; Isodin; Lederpam; Limbial; Murelax; N-desmethyltemazepam; Nesontil.

$$$$
694
 

 22 23  0  0  0  0  0  0  0  0999 V2000
   -0.7567    0.0175   -0.0064 C   0  0  0  0  0  0  0  0  0  1  0  0
   -1.4509    1.1222   -0.5031 C   0  0  0  0  0  0  0  0  0  2  0  0
   -2.8476    1.1231   -0.5153 C   0  0  0  0  0  0  0  0  0  3  0  0
   -3.5454    0.0116   -0.0369 C   0  0  0  0  0  0  0  0  0  4  0  0
   -2.8555   -1.0918    0.4762 C   0  0  0  0  0  0  0  0  0  5  0  0
   -1.4508   -1.0880    0.5026 C   0  0  0  0  0  0  0  0  0  6  0  0
    3.5454    0.1817    0.0314 C   0  0  0  0  0  0  0  0  0  7  0  0
    2.8009    0.6918    1.1000 C   0  0  0  0  0  0  0  0  0  8  0  0
    1.4084    0.6325    1.0637 C   0  0  0  0  0  0  0  0  0  9  0  0
    0.7593    0.0696   -0.0384 C   0  0  0  0  0  0  0  0  0 10  0  0
    1.4974   -0.4220   -1.1217 C   0  0  0  0  0  0  0  0  0 11  0  0
    2.9016   -0.3708   -1.0802 C   0  0  0  0  0  0  0  0  0 12  0  0
   -3.7835    2.6245   -1.1830 Br  0  0  0  0  0  0  0  0  0 13  0  0
   -3.9075   -2.5398    1.1166 Br  0  0  0  0  0  0  0  0  0 14  0  0
   -0.4362   -2.5381    1.2023 Br  0  0  0  0  0  0  0  0  0 15  0  0
    0.5439   -1.1448   -2.6016 Br  0  0  0  0  0  0  0  0  0 16  0  0
    4.0123   -1.0202   -2.4794 Br  0  0  0  0  0  0  0  0  0 17  0  0
    3.6738    1.4561    2.5935 Br  0  0  0  0  0  0  0  0  0 18  0  0
   -0.8874    1.9888   -0.8866 H   0  0  0  0  0  0  0  0  0 19  0  0
   -4.6482    0.0163   -0.0631 H   0  0  0  0  0  0  0  0  0 20  0  0
    4.6461    0.2239    0.0739 H   0  0  0  0  0  0  0  0  0 21  0  0
    0.8085    1.0231    1.9032 H   0  0  0  0  0  0  0  0  0 22  0  0
  1  2  2  0  0  0  0
  1  6  1  0  0  0  0
  1 10  1  0  0  0  0
  2  3  1  0  0  0  0
  2 19  1  0  0  0  0
  3  4  2  0  0  0  0
  3 13  1  0  0  0  0
  4  5  1  0  0  0  0
  4 20  1  0  0  0  0
  5  6  2  0  0  0  0
  5 14  1  0  0  0  0
  6 15  1  0  0  0  0
  7  8  2  0  0  0  0
  7 12  1  6  0  0  0
  7 21  1  0  0  0  0
  8  9  1  0  0  0  0
  8 18  1  1  0  0  0
  9 10  2  0  0  0  0
  9 22  1  1  0  0  0
 10 11  1  6  0  0  0
 11 12  2  0  0  0  0
 11 16  1  6  0  0  0
 12 17  1  6  0  0  0
M  END
>  <Substance ID> (694)
694

>  <Mouse_Female_Canc> (694)
3

>  <SAL> (694)
ND

>  <Rat_Male_Canc> (694)
3

>  <TD50_Rat> (694)
0.322

>  <TD50_Mouse> (694)
0.332

>  <Rat_Female_Canc> (694)
3

>  <Canc> (694)
3

>  <MolWeight> (694)
Unspecified 

>  <Mouse_Male_Canc> (694)
3

>  <Mouse_Male_NTP> (694)
CE

>  <ChemName> (694)
Polybrominated biphenyl

>  <Rat_Male_NTP> (694)
CE

>  <Reference> (694)
NTP244 & NTP398

>  <Formula> (694)
Unspecified 

>  <SMILES> (694)
Unspecified 

>  <Rat_Female_NTP> (694)
CE

>  <CAS> (694)
67774-32-7

>  <Mouse_Female_NTP> (694)
CE

>  <Synonyms> (694)
brominated biphenyl; Firemaster FF-1; PBB; polybrominated biphenyl (ff-1); Polybrominated biphenyl mixture.

$$$$
695


 47 48  0  0  0  0  0  0  0  0999 V2000
   -0.0169    1.3966    0.0097 C   0  0  0  0  0  0  0  0  0  1  0  0
    0.0021   -0.0041    0.0020 C   0  0  0  0  0  0  0  0  0  2  0  0
    1.1891    2.1090    0.0020 C   0  0  0  0  0  0  0  0  0  3  0  0
   -1.2966    2.1154    0.0197 C   0  0  0  0  0  0  0  0  0  4  0  0
    1.2088   -0.6741   -0.0131 C   0  0  0  0  0  0  0  0  0  5  0  0
    2.3879    1.4319   -0.0131 C   0  0  0  0  0  0  0  0  0  6  0  0
   -1.3125    3.4709    0.0271 C   0  0  0  0  0  0  0  0  0  7  0  0
    2.4053    0.0429   -0.0202 C   0  0  0  0  0  0  0  0  0  8  0  0
    1.2312   -2.0338   -0.0206 O   0  0  0  0  0  0  0  0  0  9  0  0
   -2.5399    4.1604    0.0367 C   0  0  0  0  0  0  0  0  0 10  0  0
    3.5909   -0.6190   -0.0342 O   0  0  0  0  0  0  0  0  0 11  0  0
   -0.1298   -2.4694   -0.0100 C   0  0  0  0  0  0  0  0  0 12  0  0
   -2.5576    5.6673    0.0450 C   0  0  0  0  0  0  0  0  0 13  0  0
   -3.5847    3.5407    0.0383 O   0  0  0  0  0  0  0  0  0 14  0  0
   -3.9842    6.1529    0.0544 C   0  0  0  0  0  0  0  0  0 15  0  0
   -4.2577    7.5338    0.0632 C   0  0  0  0  0  0  0  0  0 16  0  0
   -4.8982    5.3527    0.0544 O   0  0  0  0  0  0  0  0  0 17  0  0
   -5.5410    7.9706    0.0717 C   0  0  0  0  0  0  0  0  0 18  0  0
   -5.8262    9.4104    0.0809 C   0  0  0  0  0  0  0  0  0 19  0  0
   -7.1514    9.8641    0.0896 C   0  0  0  0  0  0  0  0  0 20  0  0
   -4.7740   10.3350    0.0867 C   0  0  0  0  0  0  0  0  0 21  0  0
   -7.4129   11.2195    0.0982 C   0  0  0  0  0  0  0  0  0 22  0  0
   -5.0446   11.6850    0.0952 C   0  0  0  0  0  0  0  0  0 23  0  0
   -6.3593   12.1337    0.0976 C   0  0  0  0  0  0  0  0  0 24  0  0
   -8.6982   11.6637    0.1067 O   0  0  0  0  0  0  0  0  0 25  0  0
   -6.6196   13.4664    0.1052 O   0  0  0  0  0  0  0  0  0 26  0  0
   -9.5354   10.5057    0.1044 C   0  0  0  0  0  0  0  0  0 27  0  0
   -0.9249   -0.5582    0.0083 H   0  0  0  0  0  0  0  0  0 28  0  0
    1.1786    3.1890    0.0076 H   0  0  0  0  0  0  0  0  0 29  0  0
   -2.2255    1.5645    0.0211 H   0  0  0  0  0  0  0  0  0 30  0  0
    3.3172    1.9821   -0.0190 H   0  0  0  0  0  0  0  0  0 31  0  0
   -0.3836    4.0219    0.0257 H   0  0  0  0  0  0  0  0  0 32  0  0
    3.8266   -0.7506   -0.9627 H   0  0  0  0  0  0  0  0  0 33  0  0
   -0.6239   -2.0955    0.8868 H   0  0  0  0  0  0  0  0  0 34  0  0
   -0.6409   -2.0860   -0.8931 H   0  0  0  0  0  0  0  0  0 35  0  0
   -0.1626   -3.5589   -0.0155 H   0  0  0  0  0  0  0  0  0 36  0  0
   -2.0439    6.0318    0.9345 H   0  0  0  0  0  0  0  0  0 37  0  0
   -2.0523    6.0415   -0.8454 H   0  0  0  0  0  0  0  0  0 38  0  0
   -3.4452    8.2453    0.0632 H   0  0  0  0  0  0  0  0  0 39  0  0
   -6.3536    7.2592    0.0717 H   0  0  0  0  0  0  0  0  0 40  0  0
   -7.9664    9.1555    0.0893 H   0  0  0  0  0  0  0  0  0 41  0  0
   -3.7508    9.9891    0.0848 H   0  0  0  0  0  0  0  0  0 42  0  0
   -4.2326   12.3970    0.0997 H   0  0  0  0  0  0  0  0  0 43  0  0
   -6.6689   13.7363    1.0324 H   0  0  0  0  0  0  0  0  0 44  0  0
   -9.3362    9.9150   -0.7897 H   0  0  0  0  0  0  0  0  0 45  0  0
   -9.3277    9.9054    0.9902 H   0  0  0  0  0  0  0  0  0 46  0  0
  -10.5811   10.8134    0.1111 H   0  0  0  0  0  0  0  0  0 47  0  0
  1  2  2  0  0  0  0
  1  3  1  0  0  0  0
  1  4  1  0  0  0  0
  2  5  1  0  0  0  0
  2 28  1  0  0  0  0
  3  6  2  0  0  0  0
  3 29  1  0  0  0  0
  4  7  2  0  0  0  0
  4 30  1  0  0  0  0
  5  8  2  0  0  0  0
  5  9  1  0  0  0  0
  6  8  1  0  0  0  0
  6 31  1  0  0  0  0
  7 10  1  0  0  0  0
  7 32  1  0  0  0  0
  8 11  1  0  0  0  0
  9 12  1  0  0  0  0
 10 13  1  0  0  0  0
 10 14  2  0  0  0  0
 11 33  1  0  0  0  0
 12 34  1  0  0  0  0
 12 35  1  0  0  0  0
 12 36  1  0  0  0  0
 13 15  1  0  0  0  0
 13 37  1  0  0  0  0
 13 38  1  0  0  0  0
 15 16  1  0  0  0  0
 15 17  2  0  0  0  0
 16 18  2  0  0  0  0
 16 39  1  0  0  0  0
 18 19  1  0  0  0  0
 18 40  1  0  0  0  0
 19 20  2  0  0  0  0
 19 21  1  0  0  0  0
 20 22  1  0  0  0  0
 20 41  1  0  0  0  0
 21 23  2  0  0  0  0
 21 42  1  0  0  0  0
 22 24  2  0  0  0  0
 22 25  1  0  0  0  0
 23 24  1  0  0  0  0
 23 43  1  0  0  0  0
 24 26  1  0  0  0  0
 25 27  1  0  0  0  0
 26 44  1  0  0  0  0
 27 45  1  0  0  0  0
 27 46  1  0  0  0  0
 27 47  1  0  0  0  0
M  END
>  <Substance ID> (695)
695

>  <Mouse_Female_Canc> (695)
2

>  <SAL> (695)
1

>  <Rat_Male_Canc> (695)
1

>  <TD50_Rat> (695)
NP

>  <TD50_Mouse> (695)
NP

>  <Rat_Female_Canc> (695)
2

>  <Canc> (695)
2

>  <MolWeight> (695)
368.39

>  <Mouse_Male_Canc> (695)
2

>  <Mouse_Male_NTP> (695)
EE

>  <ChemName> (695)
Curcumin

>  <Rat_Male_NTP> (695)
NE

>  <Reference> (695)
NTP427

>  <Formula> (695)
C21H20O6 

>  <SMILES> (695)
O=C(C=Cc(ccc(O)c1OC)c1)CC(=O)C=Cc(ccc(O)c2OC)c2

>  <Rat_Female_NTP> (695)
EE

>  <CAS> (695)
458-37-7

>  <Mouse_Female_NTP> (695)
EE

>  <Synonyms> (695)
1,6-Heptadiene-3,5-dione, 1,7-bis(4-hydroxy-3-methoxyphenyl)-, (E,E)-; 1,7-bis(4-hydroxy-3-methoxyphenyl)-1,6-heptadiene-3,5-dione; diferuloylmethane; C.I. 75300; C.I. natural yellow 3; curouma; E-100; gelbwurz; Haidr; Halad; haldar; Halud; indian saffron; kachs haldi; merita earth; Natural Yellow 3; safra d'inde; souchet; terra merita; tumeric yellow; yellow ginger; yellow root; YO-KIN.

$$$$
696  
 

 43 47  0  0  0  0  0  0  0  0999 V2000
   -6.6804    5.0885   11.5842 C   0  0  0  0  0  0  0  0  0  1  0  0
   -7.5963    4.7204   10.6137 C   0  0  0  0  0  0  0  0  0  2  0  0
   -8.9377    4.7937   10.9803 C   0  0  0  0  0  0  0  0  0  3  0  0
   -9.2836    5.1957   12.2725 C   0  0  0  0  0  0  0  0  0  4  0  0
   -8.3483    5.4998   13.2752 C   0  0  0  0  0  0  0  0  0  5  0  0
   -7.0015    5.4099   12.8927 C   0  0  0  0  0  0  0  0  0  6  0  0
   -8.8165    5.8271   14.5230 O   0  0  0  0  0  0  0  0  0  7  0  0
   -4.8719    3.8895   10.5541 C   0  0  1  0  0  0  0  0  0  8  0  0
   -5.5572    4.1162    9.1839 C   0  0  1  0  0  0  0  0  0  9  0  0
   -7.1040    4.1805    9.2975 C   0  0  0  0  0  0  0  0  0 10  0  0
   -5.1899    5.1062   11.4271 C   0  0  1  0  0  0  0  0  0 11  0  0
   -5.3272    2.6560   11.2934 C   0  0  0  0  0  0  0  0  0 12  0  0
   -5.1393    2.5593   12.6181 C   0  0  0  0  0  0  0  0  0 13  0  0
   -4.4100    3.6438   13.3729 C   0  0  2  0  0  0  0  0  0 14  0  0
   -4.5644    3.5331   14.7718 O   0  0  0  0  0  0  0  0  0 15  0  0
   -4.7718    5.0599   12.9160 C   0  0  1  0  0  0  0  0  0 16  0  0
   -5.8877    5.5407   13.6638 O   0  0  0  0  0  0  0  0  0 17  0  0
   -7.8947    6.1950   15.5287 C   0  0  0  0  0  0  0  0  0 18  0  0
   -5.4395    3.8115   14.9920 H   0  0  0  0  0  0  0  0  0 19  0  0
   -5.0605    5.3174    8.5066 N   0  0  0  0  0  0  0  0  0 20  0  0
   -5.2660    6.5149    9.3117 C   0  0  0  0  0  0  0  0  0 21  0  0
   -4.7230    6.4001   10.7436 C   0  0  0  0  0  0  0  0  0 22  0  0
   -3.6729    5.1947    8.0800 C   0  0  0  0  0  0  0  0  0 23  0  0
   -9.7211    4.5161   10.2557 H   0  0  0  0  0  0  0  0  0 24  0  0
  -10.3553    5.2411   12.5297 H   0  0  0  0  0  0  0  0  0 25  0  0
   -3.7698    3.7811   10.4303 H   0  0  0  0  0  0  0  0  0 26  0  0
   -5.3238    3.2436    8.5245 H   0  0  0  0  0  0  0  0  0 27  0  0
   -7.5531    4.7541    8.4532 H   0  0  0  0  0  0  0  0  0 28  0  0
   -7.5117    3.1449    9.2213 H   0  0  0  0  0  0  0  0  0 29  0  0
   -5.8168    1.8423   10.7328 H   0  0  0  0  0  0  0  0  0 30  0  0
   -5.4654    1.6576   13.1633 H   0  0  0  0  0  0  0  0  0 31  0  0
   -3.3252    3.4603   13.1735 H   0  0  0  0  0  0  0  0  0 32  0  0
   -3.9089    5.7367   13.1358 H   0  0  0  0  0  0  0  0  0 33  0  0
   -7.2963    7.0782   15.2021 H   0  0  0  0  0  0  0  0  0 34  0  0
   -8.4780    6.4857   16.4340 H   0  0  0  0  0  0  0  0  0 35  0  0
   -7.2517    5.3252   15.8013 H   0  0  0  0  0  0  0  0  0 36  0  0
   -4.8167    7.4012    8.8029 H   0  0  0  0  0  0  0  0  0 37  0  0
   -6.3566    6.7437    9.3528 H   0  0  0  0  0  0  0  0  0 38  0  0
   -3.6085    6.4196   10.7306 H   0  0  0  0  0  0  0  0  0 39  0  0
   -5.0480    7.2875   11.3378 H   0  0  0  0  0  0  0  0  0 40  0  0
   -2.9557    5.1459    8.9285 H   0  0  0  0  0  0  0  0  0 41  0  0
   -3.5347    4.2879    7.4470 H   0  0  0  0  0  0  0  0  0 42  0  0
   -3.3884    6.0668    7.4468 H   0  0  0  0  0  0  0  0  0 43  0  0
  1  2  2  0  0  0  0
  1  6  1  0  0  0  0
  1 11  1  0  0  0  0
  2  3  1  0  0  0  0
  2 10  1  0  0  0  0
  3  4  2  0  0  0  0
  3 24  1  0  0  0  0
  4  5  1  0  0  0  0
  4 25  1  0  0  0  0
  5  6  2  0  0  0  0
  5  7  1  0  0  0  0
  6 17  1  0  0  0  0
  7 18  1  0  0  0  0
  8  9  1  0  0  0  0
  8 11  1  0  0  0  0
  8 12  1  0  0  0  0
  8 26  1  0  0  0  0
  9 10  1  0  0  0  0
  9 20  1  0  0  0  0
  9 27  1  0  0  0  0
 10 28  1  0  0  0  0
 10 29  1  0  0  0  0
 11 16  1  0  0  0  0
 11 22  1  0  0  0  0
 12 13  2  0  0  0  0
 12 30  1  0  0  0  0
 13 14  1  0  0  0  0
 13 31  1  0  0  0  0
 14 15  1  0  0  0  0
 14 16  1  0  0  0  0
 14 32  1  0  0  0  0
 15 19  1  0  0  0  0
 16 17  1  0  0  0  0
 16 33  1  0  0  0  0
 18 34  1  0  0  0  0
 18 35  1  0  0  0  0
 18 36  1  0  0  0  0
 20 23  1  0  0  0  0
 20 21  1  0  0  0  0
 21 22  1  0  0  0  0
 21 37  1  0  0  0  0
 21 38  1  0  0  0  0
 22 39  1  0  0  0  0
 22 40  1  0  0  0  0
 23 41  1  0  0  0  0
 23 42  1  0  0  0  0
 23 43  1  0  0  0  0
M  END
>  <Substance ID> (696)
696

>  <Mouse_Female_Canc> (696)
1

>  <SAL> (696)
1

>  <Rat_Male_Canc> (696)
1

>  <TD50_Rat> (696)
NP

>  <TD50_Mouse> (696)
NP

>  <Rat_Female_Canc> (696)
1

>  <Canc> (696)
1

>  <MolWeight> (696)
299.37

>  <Mouse_Male_Canc> (696)
1

>  <Mouse_Male_NTP> (696)
NE

>  <ChemName> (696)
Codeine

>  <Rat_Male_NTP> (696)
NE

>  <Reference> (696)
NTP455

>  <Formula> (696)
C18H21NO3

>  <SMILES> (696)
O[C@@H]1C2[C@@]34C5=C(C=CC(=C5O2)OC)CC(C3C=C1)N(C)CC4

>  <Rat_Female_NTP> (696)
NE

>  <CAS> (696)
76-57-3

>  <Mouse_Female_NTP> (696)
NE

>  <Synonyms> (696)
3-o-methylmorphine monohydrate; 7,8-didehydro-4,5-alpha-epoxy-3-methoxy-17-methylmorphinan-6-alpha-ol; 7,8-didehydro-4,5-epoxy-3-methoxy-17-methyl-(5alpha, 6alpha)-morphinan 6-ol; 7,8-didehydro-4,5-epoxy-3-methoxy-17-methylmorphinan-6-ol; Actacode; Calcidrine; codicept; Codalgin Forte Codate; (-)-codeine; codeinum; coducept; Methylmorphine; metilmorfina; morphine-3-methyl ether; morphine monomethyl ether; N-methyl norcodine; N-methylnorcodeine; Novahistine DH; Nucofed; Robitussin AC; Tussar-2; Tussi-organidin.

$$$$
697  
 

  0  0  0  0  0  0  0  0  0  0999 V2000
M  END
>  <Substance ID> (697)
697

>  <Mouse_Female_Canc> (697)
2

>  <SAL> (697)
1

>  <Rat_Male_Canc> (697)
1

>  <TD50_Rat> (697)
NP

>  <TD50_Mouse> (697)
NP

>  <Rat_Female_Canc> (697)
2

>  <Canc> (697)
2

>  <MolWeight> (697)
Unspecified 

>  <Mouse_Male_Canc> (697)
2

>  <Mouse_Male_NTP> (697)
EE

>  <ChemName> (697)
TURMERIC OLEORESIN

>  <Rat_Male_NTP> (697)
NE

>  <Reference> (697)
NTP427

>  <Formula> (697)
Unspecified 

>  <SMILES> (697)
Unspecified 

>  <Rat_Female_NTP> (697)
EE

>  <CAS> (697)
8024-37-1

>  <Mouse_Female_NTP> (697)
EE

>  <Synonyms> (697)
Curcuma longa l. oil; Curcuma longa l. oleoresin; Curcuma longa l. root oil; Curcuma longa l. root oleoresin; curcuma oil; oil of turmeric; Oils, curcuma; tumeric; turmeric oil; Turmeric Oleoresin; Turmeric root oil; Turmeric root oleoresin.

$$$$
698
 

  6  4  0  0  0  0  0  0  0  0999 V2000
   37.3821   -3.6657   -0.0025 S   0  0  0  0  0  0  0  0  0  1
   38.7258   -3.6356    1.0385 O   0  5  0  0  0  0  0  0  0  2
   37.4240   -2.4563   -0.9172 O   0  0  0  0  0  0  0  0  0  3
   36.1063   -3.6354    0.8176 O   0  0  0  0  0  0  0  0  0  4
   37.4213   -5.0850   -0.9374 O   0  5  0  0  0  0  0  0  0  5
   40.3926   -3.5964   -0.1543 Mn  0  2  0  0  0  0  0  0  0  1
  1  2  1  0  0  0
  1  3  2  0  0  0
  1  4  2  0  0  0
  1  5  1  0  0  0
M  END
>  <Substance ID> (698)
698

>  <Mouse_Female_Canc> (698)
2

>  <SAL> (698)
1

>  <Rat_Male_Canc> (698)
1

>  <TD50_Rat> (698)
NP

>  <TD50_Mouse> (698)
NP

>  <Rat_Female_Canc> (698)
1

>  <Canc> (698)
2

>  <MolWeight> (698)
169.02

>  <Mouse_Male_Canc> (698)
2

>  <Mouse_Male_NTP> (698)
EE

>  <ChemName> (698)
Manganese (II) Sulfate Monohydrate

>  <Rat_Male_NTP> (698)
NE

>  <Reference> (698)
NTP428

>  <Formula> (698)
O4SMn.H2O

>  <SMILES> (698)
[S]([O-])(=O)(=O)[O-].[Mn++].[O]

>  <Rat_Female_NTP> (698)
NE

>  <CAS> (698)
10034-96-5

>  <Mouse_Female_NTP> (698)
EE

>  <Synonyms> (698)
Manganous(II)sulfate monohydrate; manganese, monosulfate, monohydrate; Manganese sulfate monohydrate; sulfuric acid manganese salt (1:1) monohydrate; sulfuric acid, manganese(2+) salt (1:1), monohydrate; Winkler's solution #1.

$$$$
699
 

 11 10  0  0  0  0  0  0  0  0999 V2000
   35.7209  -15.2134    0.2608 C   0  0  0  0  0  0  0  0  0  0  0  0
   36.9413  -14.4214   -0.2445 C   0  0  0  0  0  0  0  0  0  0  0  0
   38.2327  -15.0904    0.2614 C   0  0  0  0  0  0  0  0  0  0  0  0
   34.2386  -14.4460   -0.3189 Cl  0  0  0  0  0  0  0  0  0  0  0  0
   36.8602  -12.7638    0.3611 Cl  0  0  0  0  0  0  0  0  0  0  0  0
   39.6334  -14.1831   -0.3189 Cl  0  0  0  0  0  0  0  0  0  0  0  0
   35.7668  -16.1514   -0.0830 H   0  0  0  0  0  0  0  0  0  0  0  0
   35.7214  -15.2241    1.2608 H   0  0  0  0  0  0  0  0  0  0  0  0
   36.9411  -14.4110   -1.2444 H   0  0  0  0  0  0  0  0  0  0  0  0
   38.2331  -15.1002    1.2613 H   0  0  0  0  0  0  0  0  0  0  0  0
   38.2782  -16.0287   -0.0816 H   0  0  0  0  0  0  0  0  0  0  0  0
  1  2  1  0  0  0  0
  2  3  1  0  0  0  0
  1  4  1  0  0  0  0
  2  5  1  0  0  0  0
  3  6  1  0  0  0  0
  1  7  1  0  0  0  0
  1  8  1  0  0  0  0
  2  9  1  0  0  0  0
  3 10  1  0  0  0  0
  3 11  1  0  0  0  0
M  END
>  <Substance ID> (699)
699

>  <Mouse_Female_Canc> (699)
3

>  <SAL> (699)
3

>  <Rat_Male_Canc> (699)
3

>  <TD50_Rat> (699)
1.35

>  <TD50_Mouse> (699)
0.875

>  <Rat_Female_Canc> (699)
3

>  <Canc> (699)
3

>  <MolWeight> (699)
147.43

>  <Mouse_Male_Canc> (699)
3

>  <Mouse_Male_NTP> (699)
CE

>  <ChemName> (699)
1,2,3-Trichloropropane

>  <Rat_Male_NTP> (699)
CE

>  <Reference> (699)
NTP384

>  <Formula> (699)
C3H5Cl3

>  <SMILES> (699)
ClC(CCl)CCl

>  <Rat_Female_NTP> (699)
CE

>  <CAS> (699)
96-18-4

>  <Mouse_Female_NTP> (699)
CE

>  <Synonyms> (699)
Allyl trichloride; Glycerin trichlorohydrin; glyceroltrichlorohydrin; glyceryl trichlorohydrin; Trichlorohydrin; Trichloropropane, 1,2,3-.

$$$$
700
 

  6  4  0  0  0  0  0  0  0  0999 V2000
   23.6430  -12.7638   -0.0023 S   0  0  0  0  0  0  0  0  0  0
   24.9869  -12.7339    1.0384 O   0  5  0  0  0  0  0  0  0  0
   23.6845  -11.5542   -0.9167 O   0  0  0  0  0  0  0  0  0  0
   22.3674  -12.7339    0.8182 O   0  0  0  0  0  0  0  0  0  0
   23.6821  -14.1829   -0.9376 O   0  5  0  0  0  0  0  0  0  0
   33.5196  -16.9400    0.0003 Ni  0  2  0  0  0  0  0  0  0  0
  1  2  1  0  0  0
  1  3  2  0  0  0
  1  4  2  0  0  0
  1  5  1  0  0  0
M  END
>  <Substance ID> (700)
700

>  <Mouse_Female_Canc> (700)
1

>  <SAL> (700)
1

>  <Rat_Male_Canc> (700)
1

>  <TD50_Rat> (700)
NP

>  <TD50_Mouse> (700)
NP

>  <Rat_Female_Canc> (700)
1

>  <Canc> (700)
1

>  <MolWeight> (700)
262.88

>  <Mouse_Male_Canc> (700)
1

>  <Mouse_Male_NTP> (700)
NE

>  <ChemName> (700)
Nickel sulfate hexahydrate

>  <Rat_Male_NTP> (700)
NE

>  <Reference> (700)
NTP454

>  <Formula> (700)
O4SNi.6H2O

>  <SMILES> (700)
[Ni+2].[O-]S([O-])(=O)=O.[O].[O].[O].[O].[O].[O]

>  <Rat_Female_NTP> (700)
NE

>  <CAS> (700)
10101-97-0

>  <Mouse_Female_NTP> (700)
NE

>  <Synonyms> (700)
Blue salt; Nickel(II)Sulfate Hexahydrate; Nickelous sulfate, 6-hydrate; nickel monosulfate hexahydrate; single nickel salt; sulfuric acid, nickel (2+) salt, hexahydrate.

$$$$
701
 

 12 11  0  0  0  0  0  0  0  0999 V2000
   34.8885  -27.6109   -0.2324 C   0  0  0  0  0  0  0  0  0  0  0  0
   36.2241  -27.0255    0.2623 C   0  0  1  0  0  0  0  0  0  0  0  0
   37.3910  -27.8467   -0.3167 C   0  0  0  0  0  0  0  0  0  0  0  0
   39.0739  -27.1084    0.3052 Br  0  0  0  0  0  0  0  0  0  0  0  0
   33.8046  -26.8478    0.3045 O   0  0  0  0  0  0  0  0  0  0  0  0
   36.3782  -25.1825   -0.3219 Br  0  0  0  0  0  0  0  0  0  0  0  0
   34.8587  -27.5748   -1.2313 H   0  0  0  0  0  0  0  0  0  0  0  0
   34.8089  -28.5608    0.0698 H   0  0  0  0  0  0  0  0  0  0  0  0
   36.2543  -27.0623    1.2611 H   0  0  0  0  0  0  0  0  0  0  0  0
   37.3120  -28.7966   -0.0144 H   0  0  0  0  0  0  0  0  0  0  0  0
   37.3602  -27.8106   -1.3156 H   0  0  0  0  0  0  0  0  0  0  0  0
   32.9374  -27.2280   -0.0168 H   0  0  0  0  0  0  0  0  0  0  0  0
  1  2  1  0  0  0  0
  2  3  1  0  0  0  0
  3  4  1  0  0  0  0
  1  5  1  0  0  0  0
  2  6  1  0  0  0  0
  1  7  1  0  0  0  0
  1  8  1  0  0  0  0
  2  9  1  0  0  0  0
  3 10  1  0  0  0  0
  3 11  1  0  0  0  0
  5 12  1  0  0  0  0
M  END
>  <Substance ID> (701)
701

>  <Mouse_Female_Canc> (701)
3

>  <SAL> (701)
3

>  <Rat_Male_Canc> (701)
3

>  <TD50_Rat> (701)
ND

>  <TD50_Mouse> (701)
ND

>  <Rat_Female_Canc> (701)
3

>  <Canc> (701)
3

>  <MolWeight> (701)
217.89

>  <Mouse_Male_Canc> (701)
3

>  <Mouse_Male_NTP> (701)
CE

>  <ChemName> (701)
2,3-dibromo-1-propanol

>  <Rat_Male_NTP> (701)
CE

>  <Reference> (701)
NTP400

>  <Formula> (701)
C3H6Br2O

>  <SMILES> (701)
OCC(Br)CBr

>  <Rat_Female_NTP> (701)
CE

>  <CAS> (701)
96-13-9

>  <Mouse_Female_NTP> (701)
CE

>  <Synonyms> (701)
2,3-Dibromopropanol; allyl alcohol dibromide; beta-dibromohydrin; dibromopropanol; glycerol 1,2-dibromohydrin.

$$$$
702
 

 11 11  0  0  0  0  0  0  0  0999 V2000
   35.5437  -33.1052   -0.0018 C   0  0  0  0  0  0  0  0  0  0  0  0
   35.5438  -34.6417    0.0019 C   0  0  0  0  0  0  0  0  0  0  0  0
   37.0108  -32.7828   -0.0004 C   0  0  0  0  0  0  0  0  0  0  0  0
   37.0097  -34.9641   -0.0000 C   0  0  0  0  0  0  0  0  0  0  0  0
   37.8782  -33.8730   -0.0004 O   0  0  0  0  0  0  0  0  0  0  0  0
   37.4241  -31.6174    0.0003 O   0  0  0  0  0  0  0  0  0  0  0  0
   37.4237  -36.1296    0.0000 O   0  0  0  0  0  0  0  0  0  0  0  0
   35.0951  -32.7455   -0.8199 H   0  0  0  0  0  0  0  0  0  0  0  0
   35.0927  -32.7416    0.8133 H   0  0  0  0  0  0  0  0  0  0  0  0
   35.0955  -35.0014    0.8203 H   0  0  0  0  0  0  0  0  0  0  0  0
   35.0925  -35.0053   -0.8130 H   0  0  0  0  0  0  0  0  0  0  0  0
  1  2  1  0  0  0  0
  1  3  1  0  0  0  0
  2  4  1  0  0  0  0
  3  5  1  0  0  0  0
  4  5  1  0  0  0  0
  3  6  2  0  0  0  0
  4  7  2  0  0  0  0
  1  8  1  0  0  0  0
  1  9  1  0  0  0  0
  2 10  1  0  0  0  0
  2 11  1  0  0  0  0
M  END
>  <Substance ID> (702)
702

>  <Mouse_Female_Canc> (702)
1

>  <SAL> (702)
1

>  <Rat_Male_Canc> (702)
1

>  <TD50_Rat> (702)
NP

>  <TD50_Mouse> (702)
NP

>  <Rat_Female_Canc> (702)
1

>  <Canc> (702)
1

>  <MolWeight> (702)
100.07

>  <Mouse_Male_Canc> (702)
1

>  <Mouse_Male_NTP> (702)
NE

>  <ChemName> (702)
Succinic anhydride

>  <Rat_Male_NTP> (702)
NE

>  <Reference> (702)
NTP373

>  <Formula> (702)
C4H4O3

>  <SMILES> (702)
O=C1OC(=O)CC1

>  <Rat_Female_NTP> (702)
NE

>  <CAS> (702)
108-30-5

>  <Mouse_Female_NTP> (702)
NE

>  <Synonyms> (702)
2,5-dioxotetrahydrofuran; dihydro-2,5-diketotetrahydrofuran; Dihydro-2,5-furandione; butanedioic anhydride; SAA; succinic acid anhydride; Succinyloxide; succinyl peroxide; tetrahydro-2,5-dioxofuran.

$$$$
703
  

 11 11  0  0  0  0  0  0  0  0999 V2000
   35.6465  -44.1517    0.1029 C   0  0  0  0  0  0  0  0  0  0  0  0
   36.8523  -43.2445    0.2228 C   0  0  0  0  0  0  0  0  0  0  0  0
   36.5027  -41.9766    0.0324 C   0  0  0  0  0  0  0  0  0  0  0  0
   35.0840  -41.9060   -0.2271 C   0  0  0  0  0  0  0  0  0  0  0  0
   34.5694  -43.1305   -0.1947 C   0  0  0  0  0  0  0  0  0  0  0  0
   34.1953  -40.4566   -0.5331 Cl  0  0  0  0  0  0  0  0  0  0  0  0
   32.9033  -43.5052   -0.4552 Cl  0  0  0  0  0  0  0  0  0  0  0  0
   35.8218  -45.3502   -1.1823 Cl  0  0  0  0  0  0  0  0  0  0  0  0
   38.4586  -43.7823    0.5608 Cl  0  0  0  0  0  0  0  0  0  0  0  0
   37.5774  -40.6254    0.0854 Cl  0  0  0  0  0  0  0  0  0  0  0  0
   35.3298  -45.0515    1.5890 Cl  0  0  0  0  0  0  0  0  0  0  0  0
  4  5  2  0  0  0  0
  2  3  2  0  0  0  0
  1  2  1  0  0  0  0
  3  4  1  0  0  0  0
  5  1  1  0  0  0  0
  4  6  1  0  0  0  0
  5  7  1  0  0  0  0
  1  8  1  0  0  0  0
  2  9  1  0  0  0  0
  3 10  1  0  0  0  0
  1 11  1  0  0  0  0
M  END
>  <Substance ID> (703)
703

>  <Mouse_Female_Canc> (703)
1

>  <SAL> (703)
1

>  <Rat_Male_Canc> (703)
1

>  <TD50_Rat> (703)
NP

>  <TD50_Mouse> (703)
NP

>  <Rat_Female_Canc> (703)
1

>  <Canc> (703)
1

>  <MolWeight> (703)
272.77

>  <Mouse_Male_Canc> (703)
1

>  <Mouse_Male_NTP> (703)
NE

>  <ChemName> (703)
Hexachlorocyclopentadiene 

>  <Rat_Male_NTP> (703)
NE

>  <Reference> (703)
NTP437

>  <Formula> (703)
C5Cl6

>  <SMILES> (703)
ClC1(C(=C(C(=C1Cl)Cl)Cl)Cl)Cl

>  <Rat_Female_NTP> (703)
NE

>  <CAS> (703)
77-47-4

>  <Mouse_Female_NTP> (703)
NE

>  <Synonyms> (703)
1,2,3,4,5,5-Hexachloro-1,3-Cyclopentadiene; 1,2,3,4,5,5-Hexachlorocyclopentadiene; C56; graphlox; HCCPD; Hexachloro-1,3-cyclopentadiene; hrs 1655; Perchloro-1,3-cyclopentadiene; Perchlorocyclopentadiene.

$$$$
704
 

  2  1  0  0  0  0  0  0  0  0999 V2000
   -0.0005   -0.1971   -0.0002 Cl  0  0  0  0  0  0  0  0  0  1  0  0
    0.0002    1.7969    0.0002 Cl  0  0  0  0  0  0  0  0  0  2  0  0
  1  2  1  0  0  0  0
M  END
>  <Substance ID> (704)
704

>  <Mouse_Female_Canc> (704)
1

>  <SAL> (704)
1

>  <Rat_Male_Canc> (704)
1

>  <TD50_Rat> (704)
NP

>  <TD50_Mouse> (704)
NP

>  <Rat_Female_Canc> (704)
2

>  <Canc> (704)
2

>  <MolWeight> (704)
70.91

>  <Mouse_Male_Canc> (704)
1

>  <Mouse_Male_NTP> (704)
NE

>  <ChemName> (704)
Chlorinated Water

>  <Rat_Male_NTP> (704)
NE

>  <Reference> (704)
NTP392

>  <Formula> (704)
Cl2 

>  <SMILES> (704)
ClCl

>  <Rat_Female_NTP> (704)
EE

>  <CAS> (704)
7782-50-5

>  <Mouse_Female_NTP> (704)
NE

>  <Synonyms> (704)
Dichlorine; Chlorine; Chlorine; Molecular Chlorine.

$$$$
705
 

 30 30  0  0  0  0  0  0  0  0999 V2000
   39.0367  -60.8176   -0.3898 C   0  0  0  0  0  0  0  0  0  0  0  0
   38.0011  -59.8123   -0.2732 O   0  0  0  0  0  0  0  0  0  0  0  0
   36.7261  -60.3665   -0.1429 C   0  0  0  0  0  0  0  0  0  0  0  0
   36.5939  -61.5959   -0.1494 O   0  0  0  0  0  0  0  0  0  0  0  0
   39.2910  -61.5370    0.9585 C   0  0  0  0  0  0  0  0  0  0  0  0
   36.5627  -57.0813   -0.0747 C   0  0  0  0  0  0  0  0  0  0  0  0
   37.8722  -57.5019   -0.0268 O   0  0  0  0  0  0  0  0  0  0  0  0
   36.3314  -55.8676   -0.1325 O   0  0  0  0  0  0  0  0  0  0  0  0
   38.7484  -56.3735   -0.0568 C   0  0  0  0  0  0  0  0  0  0  0  0
   40.2033  -56.8559    0.0787 C   0  0  0  0  0  0  0  0  0  0  0  0
   35.4849  -59.5434   -0.0349 C   0  0  0  0  0  0  0  0  0  0  0  0
   35.4062  -58.0163   -0.0321 C   0  0  0  0  0  0  0  0  0  0  0  0
   32.9846  -58.2397    0.0974 C   0  0  0  0  0  0  0  0  0  0  0  0
   33.0533  -59.5656    0.1146 C   0  0  0  0  0  0  0  0  0  0  0  0
   34.3464  -60.2343    0.0397 C   0  0  0  0  0  0  0  0  0  0  0  0
   34.2038  -57.4433    0.0236 C   0  0  0  0  0  0  0  0  0  0  0  0
   38.7561  -61.4944   -1.0703 H   0  0  0  0  0  0  0  0  0  0  0  0
   39.8839  -60.3771   -0.6868 H   0  0  0  0  0  0  0  0  0  0  0  0
   40.0098  -62.2221    0.8409 H   0  0  0  0  0  0  0  0  0  0  0  0
   38.4500  -61.9854    1.2613 H   0  0  0  0  0  0  0  0  0  0  0  0
   39.5775  -60.8684    1.6447 H   0  0  0  0  0  0  0  0  0  0  0  0
   38.6372  -55.8872   -0.9234 H   0  0  0  0  0  0  0  0  0  0  0  0
   38.5282  -55.7595    0.7012 H   0  0  0  0  0  0  0  0  0  0  0  0
   40.8193  -56.0684    0.0581 H   0  0  0  0  0  0  0  0  0  0  0  0
   40.4232  -57.4704   -0.6789 H   0  0  0  0  0  0  0  0  0  0  0  0
   40.3142  -57.3427    0.9452 H   0  0  0  0  0  0  0  0  0  0  0  0
   32.0942  -57.7860    0.1353 H   0  0  0  0  0  0  0  0  0  0  0  0
   32.2151  -60.1072    0.1790 H   0  0  0  0  0  0  0  0  0  0  0  0
   34.3807  -61.2337    0.0443 H   0  0  0  0  0  0  0  0  0  0  0  0
   34.1365  -56.4456    0.0144 H   0  0  0  0  0  0  0  0  0  0  0  0
  2  3  1  0  0  0  0
  3  4  2  0  0  0  0
  2  1  1  0  0  0  0
  1  5  1  0  0  0  0
  6  7  1  0  0  0  0
  6  8  2  0  0  0  0
  7  9  1  0  0  0  0
  9 10  1  0  0  0  0
 13 14  2  0  0  0  0
 11 12  1  0  0  0  0
 13 16  1  0  0  0  0
 14 15  1  0  0  0  0
 15 11  2  0  0  0  0
 12 16  2  0  0  0  0
 11  3  1  0  0  0  0
 12  6  1  0  0  0  0
  1 17  1  0  0  0  0
  1 18  1  0  0  0  0
  5 19  1  0  0  0  0
  5 20  1  0  0  0  0
  5 21  1  0  0  0  0
  9 22  1  0  0  0  0
  9 23  1  0  0  0  0
 10 24  1  0  0  0  0
 10 25  1  0  0  0  0
 10 26  1  0  0  0  0
 13 27  1  0  0  0  0
 14 28  1  0  0  0  0
 15 29  1  0  0  0  0
 16 30  1  0  0  0  0
M  END
>  <Substance ID> (705)
705

>  <Mouse_Female_Canc> (705)
2

>  <SAL> (705)
1

>  <Rat_Male_Canc> (705)
1

>  <TD50_Rat> (705)
NP

>  <TD50_Mouse> (705)
NP

>  <Rat_Female_Canc> (705)
1

>  <Canc> (705)
2

>  <MolWeight> (705)
222.24

>  <Mouse_Male_Canc> (705)
2

>  <Mouse_Male_NTP> (705)
EE

>  <ChemName> (705)
Diethyl Phthalate 

>  <Rat_Male_NTP> (705)
NE

>  <Reference> (705)
NTP429

>  <Formula> (705)
C12H14O4 

>  <SMILES> (705)
O=C(OCC)c(c(ccc1)C(=O)OCC)c1

>  <Rat_Female_NTP> (705)
NE

>  <CAS> (705)
84-66-2

>  <Mouse_Female_NTP> (705)
EE

>  <Synonyms> (705)
1,2-benzenedicarboxylic acid diethyl ester; anozol; Benzenedicarboxylic acid, diethyl ester; diethyl o-phthalate; DEP; estol 1550; Ethyl phthalate; neantine; palatinol a; phthalol; placidol e; solvanol.

$$$$
706
 

 77 82  0  0  0  0  0  0  0  0999 V2000
   28.6387  -21.3359    0.0189 O   0  0  0  0  0  0  0  0  0  1  0  0
   27.4719  -22.0893    0.0361 C   0  0  0  0  0  0  0  0  0  2  0  0
   26.1336  -21.3870    0.0369 C   0  5  0  0  0  0  0  0  0  3  0  0
   24.9789  -22.0828    0.0475 C   0  0  0  0  0  0  0  0  0  4  0  0
   25.0850  -23.5723    0.0588 C   0  0  0  0  0  0  0  0  0  5  0  0
   26.2818  -24.2005    0.0591 C   0  0  0  0  0  0  0  0  0  6  0  0
   27.5584  -23.4267    0.0468 C   0  0  0  0  0  0  0  0  0  7  0  0
   28.9042  -24.0879    0.0464 N   0  0  0  0  0  0  0  0  0  8  0  0
   29.0692  -25.3057    0.0304 N   0  0  0  0  0  0  0  0  0  9  0  0
   30.4026  -25.9871    0.0243 C   0  0  0  0  0  0  0  0  0 10  0  0
   30.4470  -27.4932   -0.0558 C   0  0  0  0  0  0  0  0  0 11  0  0
   31.5945  -28.1747   -0.0729 C   0  0  0  0  0  0  0  0  0 12  0  0
   32.8657  -27.5084   -0.0178 C   0  0  0  0  0  0  0  0  0 13  0  0
   33.9932  -28.2248   -0.0461 C   0  0  0  0  0  0  0  0  0 14  0  0
   35.2919  -27.5600    0.0058 C   0  0  0  0  0  0  0  0  0 15  0  0
   35.3376  -26.2307    0.0873 C   0  0  0  0  0  0  0  0  0 16  0  0
   34.0808  -25.4387    0.1191 C   0  0  0  0  0  0  0  0  0 17  0  0
   34.1614  -24.0156    0.2025 N   0  0  0  0  0  0  0  0  0 18  0  0
   32.8920  -26.0595    0.0657 C   0  0  0  0  0  0  0  0  0 19  0  0
   31.5684  -25.3068    0.0835 C   0  0  0  0  0  0  0  0  0 20  0  0
   31.5565  -23.9197    0.1590 O   0  0  0  0  0  0  0  0  0 21  0  0
   36.7993  -28.5243   -0.0476 S   0  0  0  0  0  0  0  0  0 22  0  0
   36.5297  -29.9853   -0.8782 O   0  5  0  0  0  0  0  0  0 23  0  0
   37.2336  -28.8508    1.3691 O   0  0  0  0  0  0  0  0  0 24  0  0
   37.9050  -27.7291   -0.7165 O   0  0  0  0  0  0  0  0  0 25  0  0
   28.9607  -28.4288   -0.1353 S   0  0  0  0  0  0  0  0  0 26  0  0
   27.7919  -27.5861   -1.0291 O   0  5  0  0  0  0  0  0  0 27  0  0
   28.4478  -28.6460    1.2749 O   0  0  0  0  0  0  0  0  0 28  0  0
   29.2560  -29.7787   -0.7634 O   0  0  0  0  0  0  0  0  0 29  0  0
   23.5984  -21.3325    0.0512 C   0  0  0  0  0  0  0  0  0 30  0  0
   23.5378  -19.8494    0.0381 C   0  0  0  0  0  0  0  0  0 31  0  0
   22.3637  -19.1909    0.0416 C   0  0  0  0  0  0  0  0  0 32  0  0
   21.0588  -19.9094    0.0570 C   0  0  0  0  0  0  0  0  0 33  0  0
   19.7798  -19.1222    0.0540 N   0  0  0  0  0  0  0  0  0 34  0  0
   18.6550  -19.6190    0.0713 N   0  0  0  0  0  0  0  0  0 35  0  0
   17.3724  -18.8430    0.0389 C   0  0  0  0  0  0  0  0  0 36  0  0
   17.3097  -17.3203   -0.0766 C   0  0  0  0  0  0  0  0  0 37  0  0
   16.1373  -16.6734   -0.1041 C   0  0  0  0  0  0  0  0  0 38  0  0
   14.8721  -17.3736   -0.0302 C   0  0  0  0  0  0  0  0  0 39  0  0
   13.7201  -16.6934   -0.0670 C   0  0  0  0  0  0  0  0  0 40  0  0
   12.4387  -17.4065    0.0029 C   0  0  0  0  0  0  0  0  0 41  0  0
   12.4399  -18.7334    0.1056 C   0  0  0  0  0  0  0  0  0 42  0  0
   13.7169  -19.4760    0.1461 C   0  0  0  0  0  0  0  0  0 43  0  0
   13.6829  -20.8998    0.2540 N   0  0  0  0  0  0  0  0  0 44  0  0
   14.8838  -18.8164    0.0792 C   0  0  0  0  0  0  0  0  0 45  0  0
   16.2140  -19.5276    0.1113 C   0  0  0  0  0  0  0  0  0 46  0  0
   16.2597  -20.9113    0.2150 O   0  0  0  0  0  0  0  0  0 47  0  0
   10.8896  -16.5124   -0.0552 S   0  0  0  0  0  0  0  0  0 48  0  0
   11.0829  -15.0513   -0.9039 O   0  5  0  0  0  0  0  0  0 49  0  0
   10.4453  -16.1941    1.3603 O   0  0  0  0  0  0  0  0  0 50  0  0
    9.8206  -17.3695   -0.7079 O   0  0  0  0  0  0  0  0  0 51  0  0
   18.7545  -16.3080   -0.1837 S   0  0  0  0  0  0  0  0  0 52  0  0
   19.8876  -16.9800   -1.2506 O   0  5  0  0  0  0  0  0  0 53  0  0
   19.3723  -16.1892    1.1959 O   0  0  0  0  0  0  0  0  0 54  0  0
   18.3466  -14.9271   -0.6642 O   0  0  0  0  0  0  0  0  0 55  0  0
   21.0921  -21.2519    0.0679 C   0  0  0  0  0  0  0  0  0 56  0  0
   19.9036  -21.9751    0.0803 O   0  0  0  0  0  0  0  0  0 57  0  0
   22.4286  -21.9978    0.0646 C   0  0  0  0  0  0  0  0  0 58  0  0
   29.4305  -21.9466    0.0208 H   0  0  0  0  0  0  0  0  0  0  0  0
   24.2482  -24.1197    0.0663 H   0  0  0  0  0  0  0  0  0  0  0  0
   26.3126  -25.2000    0.0676 H   0  0  0  0  0  0  0  0  0  0  0  0
   31.5685  -29.1730   -0.1255 H   0  0  0  0  0  0  0  0  0  0  0  0
   33.9472  -29.2221   -0.1033 H   0  0  0  0  0  0  0  0  0  0  0  0
   36.2213  -25.7644    0.1272 H   0  0  0  0  0  0  0  0  0  0  0  0
   33.3251  -23.4679    0.2248 H   0  0  0  0  0  0  0  0  0  0  0  0
   35.0543  -23.5667    0.2386 H   0  0  0  0  0  0  0  0  0  0  0  0
   32.4960  -23.5793    0.1954 H   0  0  0  0  0  0  0  0  0  0  0  0
   24.3901  -19.3266    0.0265 H   0  0  0  0  0  0  0  0  0  0  0  0
   22.3676  -18.1909    0.0336 H   0  0  0  0  0  0  0  0  0  0  0  0
   16.1357  -15.6762   -0.1780 H   0  0  0  0  0  0  0  0  0  0  0  0
   13.7322  -15.6963   -0.1423 H   0  0  0  0  0  0  0  0  0  0  0  0
   11.5732  -19.2298    0.1556 H   0  0  0  0  0  0  0  0  0  0  0  0
   14.5367  -21.4196    0.2829 H   0  0  0  0  0  0  0  0  0  0  0  0
   12.8053  -21.3769    0.3007 H   0  0  0  0  0  0  0  0  0  0  0  0
   15.3288  -21.2737    0.2590 H   0  0  0  0  0  0  0  0  0  0  0  0
   20.1084  -22.9538    0.0873 H   0  0  0  0  0  0  0  0  0  0  0  0
   22.4327  -22.9978    0.0726 H   0  0  0  0  0  0  0  0  0  0  0  0
  1  2  1  0  0  0  0
  2  3  1  0  0  0  0
  2  7  2  0  0  0  0
  3  4  2  0  0  0  0
  4  5  1  0  0  0  0
  4 30  1  0  0  0  0
  5  6  2  0  0  0  0
  6  7  1  0  0  0  0
  7  8  1  0  0  0  0
  8  9  2  0  0  0  0
  9 10  1  0  0  0  0
 10 11  1  0  0  0  0
 10 20  2  0  0  0  0
 11 12  2  0  0  0  0
 11 26  1  0  0  0  0
 12 13  1  0  0  0  0
 13 14  2  0  0  0  0
 13 19  1  0  0  0  0
 14 15  1  0  0  0  0
 15 16  2  0  0  0  0
 15 22  1  0  0  0  0
 16 17  1  0  0  0  0
 17 18  1  0  0  0  0
 17 19  2  0  0  0  0
 19 20  1  0  0  0  0
 20 21  1  0  0  0  0
 22 23  1  0  0  0  0
 22 24  2  0  0  0  0
 22 25  2  0  0  0  0
 26 27  1  0  0  0  0
 26 28  2  0  0  0  0
 26 29  2  0  0  0  0
 30 31  1  0  0  0  0
 30 58  2  0  0  0  0
 31 32  2  0  0  0  0
 32 33  1  0  0  0  0
 33 34  1  0  0  0  0
 33 56  2  0  0  0  0
 34 35  2  0  0  0  0
 35 36  1  0  0  0  0
 36 37  1  0  0  0  0
 36 46  2  0  0  0  0
 37 38  2  0  0  0  0
 37 52  1  0  0  0  0
 38 39  1  0  0  0  0
 39 40  2  0  0  0  0
 39 45  1  0  0  0  0
 40 41  1  0  0  0  0
 41 42  2  0  0  0  0
 41 48  1  0  0  0  0
 42 43  1  0  0  0  0
 43 44  1  0  0  0  0
 43 45  2  0  0  0  0
 45 46  1  0  0  0  0
 46 47  1  0  0  0  0
 48 49  1  0  0  0  0
 48 50  2  0  0  0  0
 48 51  2  0  0  0  0
 52 53  1  0  0  0  0
 52 54  2  0  0  0  0
 52 55  2  0  0  0  0
 56 57  1  0  0  0  0
 56 58  1  0  0  0  0
  1 59  1  0  0  0  0
  5 60  1  0  0  0  0
  6 61  1  0  0  0  0
 12 62  1  0  0  0  0
 14 63  1  0  0  0  0
 16 64  1  0  0  0  0
 18 65  1  0  0  0  0
 18 66  1  0  0  0  0
 21 67  1  0  0  0  0
 31 68  1  0  0  0  0
 32 69  1  0  0  0  0
 38 70  1  0  0  0  0
 40 71  1  0  0  0  0
 42 72  1  0  0  0  0
 44 73  1  0  0  0  0
 44 74  1  0  0  0  0
 47 75  1  0  0  0  0
 57 76  1  0  0  0  0
 58 77  1  0  0  0  0
M  END
>  <Substance ID> (706)
706

>  <Mouse_Female_Canc> (706)
3

>  <SAL> (706)
1

>  <Rat_Male_Canc> (706)
3

>  <TD50_Rat> (706)
1570

>  <TD50_Mouse> (706)
857

>  <Rat_Female_Canc> (706)
1

>  <Canc> (706)
3

>  <MolWeight> (706)
964.76

>  <Mouse_Male_Canc> (706)
3

>  <Mouse_Male_NTP> (706)
CE

>  <ChemName> (706)
C.I. Direct Blue 218

>  <Rat_Male_NTP> (706)
SE

>  <Reference> (706)
NTP430

>  <Formula> (706)
C32H20N6O16S4Na4

>  <SMILES> (706)
Oc3cc(ccc3/N=N/c2c(cc1cc(cc(N)c1c2O)S([O-])(=O)=O)S([O-])(=O)=O)c6ccc(/N=N/c5c(cc4cc(cc(N)c4c5O)S([O-])(=O)=O)S([O-])(=O)=O)c(O)c6.[Na+].[Na+].[Na+].[Na+]

>  <Rat_Female_NTP> (706)
NE

>  <CAS> (706)
28407-37-6

>  <Mouse_Female_NTP> (706)
CE

>  <Synonyms> (706)
Anamil supra blue 9gl; direct blue 218; C.I. 24401; fast blue 7gln; fastusol blue 9glp; [mu-[[3,3'-[(3,3'-dihydroxy[1,1'-biphenyl]-4,4'-diyl)bis(azo)]bis[5-amino-4-hydroxy-2,7-naphthalenedisulfonato]](4-)]]dicopper, tetrasodium salt; pontamine bond blue b.

$$$$
707
 

 28 29  0  0  0  0  0  0  0  0999 V2000
   31.4197  -90.1481    0.0063 C   0  0  0  0  0  0  0  0  0  0  0  0
   31.4720  -91.4604    0.2240 C   0  0  0  0  0  0  0  0  0  0  0  0
   32.7676  -92.1366    0.2841 C   0  0  0  0  0  0  0  0  0  0  0  0
   32.6567  -89.3913   -0.1735 C   0  0  0  0  0  0  0  0  0  0  0  0
   33.8315  -90.0153   -0.1147 C   0  0  0  0  0  0  0  0  0  0  0  0
   33.8914  -91.4400    0.1238 C   0  0  0  0  0  0  0  0  0  0  0  0
   35.1241  -92.0854    0.1840 N   0  0  0  0  0  0  0  0  0  0  0  0
   36.3814  -91.3688    0.0942 C   0  0  0  0  0  0  0  0  0  0  0  0
   36.2407  -89.8858   -0.2106 C   0  0  0  0  0  0  0  0  0  0  0  0
   35.0610  -89.2730   -0.2969 C   0  0  0  0  0  0  0  0  0  0  0  0
   35.0069  -87.8006   -0.5860 C   0  0  0  0  0  0  0  0  0  0  0  0
   37.1239  -91.5154    1.4355 C   0  0  0  0  0  0  0  0  0  0  0  0
   37.2808  -92.0252   -0.9694 C   0  0  0  0  0  0  0  0  0  0  0  0
   30.5361  -89.6814   -0.0341 H   0  0  0  0  0  0  0  0  0  0  0  0
   30.6278  -91.9824    0.3460 H   0  0  0  0  0  0  0  0  0  0  0  0
   32.8096  -93.1225    0.4456 H   0  0  0  0  0  0  0  0  0  0  0  0
   32.6210  -88.4060   -0.3404 H   0  0  0  0  0  0  0  0  0  0  0  0
   35.1428  -93.0793    0.2931 H   0  0  0  0  0  0  0  0  0  0  0  0
   37.0707  -89.3464   -0.3525 H   0  0  0  0  0  0  0  0  0  0  0  0
   35.9365  -87.4451   -0.6831 H   0  0  0  0  0  0  0  0  0  0  0  0
   34.5473  -87.3293    0.1668 H   0  0  0  0  0  0  0  0  0  0  0  0
   34.5009  -87.6454   -1.4345 H   0  0  0  0  0  0  0  0  0  0  0  0
   37.9947  -91.0260    1.3902 H   0  0  0  0  0  0  0  0  0  0  0  0
   37.2953  -92.4836    1.6180 H   0  0  0  0  0  0  0  0  0  0  0  0
   36.5644  -91.1320    2.1704 H   0  0  0  0  0  0  0  0  0  0  0  0
   38.1463  -91.5278   -1.0278 H   0  0  0  0  0  0  0  0  0  0  0  0
   36.8213  -91.9991   -1.8573 H   0  0  0  0  0  0  0  0  0  0  0  0
   37.4596  -92.9757   -0.7149 H   0  0  0  0  0  0  0  0  0  0  0  0
  1  2  2  0  0  0  0
  1  4  1  0  0  0  0
  2  3  1  0  0  0  0
  3  6  2  0  0  0  0
  5  4  2  0  0  0  0
  5  6  1  0  0  0  0
  5 10  1  0  0  0  0
  6  7  1  0  0  0  0
  7  8  1  0  0  0  0
  8  9  1  0  0  0  0
  9 10  2  0  0  0  0
 10 11  1  0  0  0  0
  8 12  1  0  0  0  0
  8 13  1  0  0  0  0
  1 14  1  0  0  0  0
  2 15  1  0  0  0  0
  3 16  1  0  0  0  0
  4 17  1  0  0  0  0
  7 18  1  0  0  0  0
  9 19  1  0  0  0  0
 11 20  1  0  0  0  0
 11 21  1  0  0  0  0
 11 22  1  0  0  0  0
 12 23  1  0  0  0  0
 12 24  1  0  0  0  0
 12 25  1  0  0  0  0
 13 26  1  0  0  0  0
 13 27  1  0  0  0  0
 13 28  1  0  0  0  0
M  END
>  <Substance ID> (707)
707

>  <Mouse_Female_Canc> (707)
ND

>  <SAL> (707)
1

>  <Rat_Male_Canc> (707)
3

>  <TD50_Rat> (707)
ND

>  <TD50_Mouse> (707)
ND

>  <Rat_Female_Canc> (707)
1

>  <Canc> (707)
3

>  <MolWeight> (707)
173.26

>  <Mouse_Male_Canc> (707)
ND

>  <Mouse_Male_NTP> (707)
ND

>  <ChemName> (707)
1,2-Dihydro-2,2,4-trimethylquinoline

>  <Rat_Male_NTP> (707)
SE

>  <Reference> (707)
NTP456

>  <Formula> (707)
C12H15N

>  <SMILES> (707)
N(c(c(C(=C1)C)ccc2)c2)C1(C)C

>  <Rat_Female_NTP> (707)
NE

>  <CAS> (707)
147-47-7

>  <Mouse_Female_NTP> (707)
ND

>  <Synonyms> (707)
2,2,4-trimethyl-1,2-dihydroquinoline; acetonanil; acetonanyl; Agerite resin D; DHTMQ; flectol a; Flectol H; flectol pastilles; TMQ; vulkanox hs; vulkanox hs/lg.

$$$$
708
 

 32 33  0  0  0  0  0  0  0  0999 V2000
   -2.3798    2.1342    2.4347 N   0  0  0  0  0  0  0  0  0  1  0  0
   -1.7479    0.9296    2.2942 C   0  0  0  0  0  0  0  0  0  2  0  0
   -0.5744    0.9018    1.5792 N   0  0  0  0  0  0  0  0  0  3  0  0
   -0.0684    2.0536    1.0810 C   0  0  0  0  0  0  0  0  0  4  0  0
   -0.6571    3.2603    1.2164 C   0  0  0  0  0  0  0  0  0  5  0  0
   -1.9427    3.3347    1.9528 C   0  0  0  0  0  0  0  0  0  6  0  0
   -2.2373   -0.0525    2.7962 O   0  0  0  0  0  0  0  0  0  7  0  0
   -2.5840    4.3575    2.1387 O   0  0  0  0  0  0  0  0  0  8  0  0
   -0.0618    4.5264    0.6566 C   0  0  0  0  0  0  0  0  0  9  0  0
    0.3877   -2.4700    0.3379 C   0  0  2  0  0  0  0  0  0 10  0  0
   -0.6854   -1.4120    0.6112 C   0  0  0  0  0  0  0  0  0 11  0  0
    0.1121   -0.3888    1.4171 C   0  0  2  0  0  0  0  0  0 12  0  0
    1.3459   -0.3200    0.7171 O   0  0  0  0  0  0  0  0  0 13  0  0
    1.6596   -1.6187    0.2263 C   0  0  1  0  0  0  0  0  0 14  0  0
    0.0603   -3.3353   -0.8149 N   0  0  0  0  0  0  0  0  0 15  0  0
    2.1945   -1.4959   -1.1919 C   0  0  0  0  0  0  0  0  0 16  0  0
    3.3834   -0.7040   -1.1866 O   0  0  0  0  0  0  0  0  0 17  0  0
   -0.0449   -4.5817   -0.6947 N   0  3  0  0  0  0  0  0  0 18  0  0
   -0.1250   -5.7077   -0.5892 N   0  5  0  0  0  0  0  0  0 19  0  0
   -3.2451    2.1342    2.9496 H   0  0  0  0  0  0  0  0  0 20  0  0
    0.8853    2.0068    0.5348 H   0  0  0  0  0  0  0  0  0 21  0  0
   -0.7583    4.9835   -0.0824 H   0  0  0  0  0  0  0  0  0 22  0  0
    0.9105    4.3531    0.1441 H   0  0  0  0  0  0  0  0  0 23  0  0
    0.1158    5.2597    1.4760 H   0  0  0  0  0  0  0  0  0 24  0  0
    0.4712   -3.1218    1.2437 H   0  0  0  0  0  0  0  0  0 25  0  0
   -1.5677   -1.8382    1.1374 H   0  0  0  0  0  0  0  0  0 26  0  0
   -1.0225   -0.9487   -0.3462 H   0  0  0  0  0  0  0  0  0 27  0  0
    0.3404   -0.7994    2.4314 H   0  0  0  0  0  0  0  0  0 28  0  0
    2.4606   -2.0500    0.8748 H   0  0  0  0  0  0  0  0  0 29  0  0
    1.4576   -1.0055   -1.8667 H   0  0  0  0  0  0  0  0  0 30  0  0
    2.4651   -2.4911   -1.6110 H   0  0  0  0  0  0  0  0  0 31  0  0
    3.7056   -0.6608   -2.0705 H   0  0  0  0  0  0  0  0  0 32  0  0
  1  2  1  0  0  0  0
  1  6  1  0  0  0  0
  1 20  1  1  0  0  0
  2  3  1  6  0  0  0
  2  7  2  0  0  0  0
  3  4  1  0  0  0  0
  3 12  1  0  0  0  0
  4  5  2  0  0  0  0
  4 21  1  6  0  0  0
  5  6  1  1  0  0  0
  5  9  1  0  0  0  0
  6  8  2  0  0  0  0
  9 22  1  6  0  0  0
  9 23  1  6  0  0  0
  9 24  1  1  0  0  0
 10 11  1  0  0  0  0
 10 14  1  0  0  0  0
 10 15  1  6  0  0  0
 10 25  1  1  0  0  0
 11 12  1  1  0  0  0
 11 26  1  1  0  0  0
 11 27  1  6  0  0  0
 12 13  1  6  0  0  0
 12 28  1  1  0  0  0
 13 14  1  0  0  0  0
 14 16  1  6  0  0  0
 14 29  1  1  0  0  0
 15 18  2  0  0  0  0
 16 17  1  0  0  0  0
 16 30  1  6  0  0  0
 16 31  1  0  0  0  0
 17 32  1  6  0  0  0
 18 19  2  0  0  0  0
M  END
>  <Substance ID> (708)
708

>  <Mouse_Female_Canc> (708)
3

>  <SAL> (708)
3

>  <Rat_Male_Canc> (708)
ND

>  <TD50_Rat> (708)
ND

>  <TD50_Mouse> (708)
ND

>  <Rat_Female_Canc> (708)
ND

>  <Canc> (708)
3

>  <MolWeight> (708)
267.25

>  <Mouse_Male_Canc> (708)
2

>  <Mouse_Male_NTP> (708)
EE

>  <ChemName> (708)
Zidovudine

>  <Rat_Male_NTP> (708)
ND

>  <Reference> (708)
NTP469

>  <Formula> (708)
C10H13N5O4 

>  <SMILES> (708)
C1=C(C)C(=O)NC(=O)N1C2OC(CO)C(N=N#N)C2

>  <Rat_Female_NTP> (708)
ND

>  <CAS> (708)
30516-87-1

>  <Mouse_Female_NTP> (708)
CE

>  <Synonyms> (708)
3-azido-3-deoxythymidine; 3'-Azido-3'-deoxythymidine; 3'-Azidothymidine; 3'-deoxy-3'-azidothymidine; azidodeoxythymidine; Azidothymidine; AZT; bw-a 509u; Retrovir; ZDV; ZVD.

$$$$
709
 

  7  6  0  0  0  0  0  0  0  0999 V2000
    6.0830  -53.4205    0.0009 C   0  0  0  0  0  0  0  0  0  0  0  0
    8.4412  -53.4296   -0.0002 O   0  0  0  0  0  0  0  0  0  0  0  0
    7.2299  -52.7446   -0.0007 C   0  0  0  0  0  0  0  0  0  0  0  0
    5.2125  -52.9283    0.0005 H   0  0  0  0  0  0  0  0  0  0  0  0
    6.0919  -54.4205    0.0026 H   0  0  0  0  0  0  0  0  0  0  0  0
    9.1957  -52.7734   -0.0016 H   0  0  0  0  0  0  0  0  0  0  0  0
    7.2210  -51.7447   -0.0024 H   0  0  0  0  0  0  0  0  0  0  0  0
  2  3  1  0  0  0  0
  3  1  2  0  0  0  0
  1  4  1  0  0  0  0
  1  5  1  0  0  0  0
  2  6  1  0  0  0  0
  3  7  1  0  0  0  0
M  END
>  <Substance ID> (709)
709

>  <Mouse_Female_Canc> (709)
1

>  <SAL> (709)
ND

>  <Rat_Male_Canc> (709)
ND

>  <TD50_Rat> (709)
ND

>  <TD50_Mouse> (709)
NP

>  <Rat_Female_Canc> (709)
ND

>  <Canc> (709)
1

>  <MolWeight> (709)
(44.05)n

>  <Mouse_Male_Canc> (709)
ND

>  <Mouse_Male_NTP> (709)
ND

>  <ChemName> (709)
Polyvinyl alcohol

>  <Rat_Male_NTP> (709)
ND

>  <Reference> (709)
NTP474

>  <Formula> (709)
(C2H4O)n 

>  <SMILES> (709)
O\C=C

>  <Rat_Female_NTP> (709)
ND

>  <CAS> (709)
9002-89-5

>  <Mouse_Female_NTP> (709)
NE

>  <Synonyms> (709)
Polyvinyl Alcohol 500; Elvanol; PVA; Polyviol; Vinol; Alvyl; PVOH; Ethenol, homopolymer; vinyl alcohol polymer; liquifilm; alcotex 88/05; alcotex 88/10; alkotex; aracet apv; cipoviol w 72; Covol; covol 971; elvanol 50-42; elvanol 52-22; elvanol 70-05; elvanol 71-30; elvanol 90-50; elvanol 522-22; elvanol 73125g; EP 160; galvatol 1-60; gelvatol; gelvatol 1-30; gelvatol 1-60; gelvatol 1-90; gelvatol 3-91; gelvatol 20-30; gelvatol 2090; GH 20; GL 02; GL 03; GLO 5; GM 14; gohsenol; gohsenol ah 22; gohsenol gh; gohsenol gh 17; gohsenol gh 20; gohsenol gh 23; gohsenol gl 02; gohsenol gl 03; gohsenol gl 05; gohsenol gl 08; gohsenol gm 14; gohsenol gm 94; gohsenol kh 17; gohsenol nh 05; gohsenol nh 17; gohsenol nh 18; gohsenol nh 20; gohsenol nh 26; gohsenol nk 114; gohsenol nl 05; gohsenol nm 14; gohsenol nm 114; ivalon; kurare poval 1700; kurare pva 205; kurate poval 120; Lemol; lemol 5-88; lemol 5-98; lemol 12-88; lemol 16-98; lemol 24-98; lemol 30-98; lemol 51-98; lemol 60-98; lemol 75-98; lemol gf-60; M 13/20; mowiol; mowiol n 30-88; mowiol n 50-98; mowiol n 70-98; NH 18; NM 11; NM 14; polydesis; polysizer 173; polyvinol; polyviol m 13/140; polyviol mo 5/140; polyviol w 25/140; polyviol w 40/140; poval 117; poval 120; poval 203; poval 205; poval 217; poval 1700; poval c 17; pva 008; PVS 4; resistoflex; rhodoviol; rhodoviol 4/125; rhodoviol 16/200; rhodoviol 4-125p; rhodoviol r 16/20; solvar; sumitex H 10; vibatex s; vinacol mh; vinalak; vinarol dt; vinarole; vinarol st; vinavilol 2-98; vinnarol; vinol 125; vinol 205; vinol 351; vinol 523; vinol unisize; vinylon film 2000; akwa tears; moviol; sno tears; PVAL; PVA1; vinylon; Polyvinyl Alcohol 15000; POLYVINYL ALCOHOL (POLYMER MIXTURE).

$$$$
710
  

  6  4  0  0  0  0  0  0  0  0999 V2000
   17.9656  -71.4698    0.0012 S   0  0  0  0  0  0  0  0  0  0
   17.9795  -70.2718    0.9317 O   0  0  0  0  0  0  0  0  0  0
   19.1929  -71.4324   -0.8897 O   0  0  0  0  0  0  0  0  0  0
   17.9752  -72.9005    0.9193 O   0  5  0  0  0  0  0  0  0  0
   16.5651  -71.4235   -0.9613 O   0  5  0  0  0  0  0  0  0  0
   19.4110  -65.1907   -0.0003 Co  0  2  0  0  0  0  0  0  0  0
  1  2  2  0  0  0
  1  3  2  0  0  0
  1  4  1  0  0  0
  1  5  1  0  0  0
M  END
>  <Substance ID> (710)
710

>  <Mouse_Female_Canc> (710)
3

>  <SAL> (710)
3

>  <Rat_Male_Canc> (710)
3

>  <TD50_Rat> (710)
ND

>  <TD50_Mouse> (710)
ND

>  <Rat_Female_Canc> (710)
3

>  <Canc> (710)
3

>  <MolWeight> (710)
281.10

>  <Mouse_Male_Canc> (710)
3

>  <Mouse_Male_NTP> (710)
CE

>  <ChemName> (710)
Cobaltous sulfate, heptahydrate

>  <Rat_Male_NTP> (710)
SE

>  <Reference> (710)
NTP471

>  <Formula> (710)
O4SCo.7H2O

>  <SMILES> (710)
[S]([O-])(=O)(=O)[O-].[Co++].[O].[O].[O].[O].[O].[O].[O]

>  <Rat_Female_NTP> (710)
CE

>  <CAS> (710)
10026-24-1

>  <Mouse_Female_NTP> (710)
CE

>  <Synonyms> (710)
bieberite; cobalt(II) sulfate (1:1) heptahydrate; Cobalt(II)Sulfate Heptahydrate; Cobalt monosulfate, heptahydrate; Cobalt sulfate, 7-hydrate; COBALT SULFATE, 99.999%; Sulfuric acid, cobalt salt, heptahydrate; sulfuric acid, cobalt(2+) salt (1:1), heptahydrate.

$$$$
711
  

  3  2  0  0  0  0  0  0  0  0999 V2000
   -0.0293    2.3057    0.0147 Hg  0  0  0  0  0  0  0  0  0  1  0  0
    0.0021   -0.0041    0.0020 Cl  0  0  0  0  0  0  0  0  0  2  0  0
   -0.0606    4.6154    0.0274 Cl  0  0  0  0  0  0  0  0  0  3  0  0
  1  2  1  0  0  0  0
  1  3  1  0  0  0  0
M  END
>  <Substance ID> (711)
711

>  <Mouse_Female_Canc> (711)
1

>  <SAL> (711)
1

>  <Rat_Male_Canc> (711)
3

>  <TD50_Rat> (711)
3.12

>  <TD50_Mouse> (711)
NP

>  <Rat_Female_Canc> (711)
2

>  <Canc> (711)
3

>  <MolWeight> (711)
271.50

>  <Mouse_Male_Canc> (711)
2

>  <Mouse_Male_NTP> (711)
EE

>  <ChemName> (711)
Mercuric chloride

>  <Rat_Male_NTP> (711)
SE

>  <Reference> (711)
NTP408

>  <Formula> (711)
Cl2Hg

>  <SMILES> (711)
Cl[Hg]Cl

>  <Rat_Female_NTP> (711)
EE

>  <CAS> (711)
7487-94-7

>  <Mouse_Female_NTP> (711)
NE

>  <Synonyms> (711)
Bichloride of Mercury; dichloromercury; Corrosive mercury chloride; Corrosive Sublimate; mercury bichloride; Mercury chloride; Mercury chloride (2); Mercuric bichloride; mercuric chloride; Mercury (II) Chloride; Mercury perchloride; perchloride of mercury; sublimate; TL 898.

$$$$
712
 

  3  0  0  0  0  0  0  0  0  0999 V2000
   16.1997   -9.6695   -0.0000 Ba  0  2  0  0  0  0  0  0  0  0
   20.1700   -7.8007    0.0000 Cl  0  5  0  0  0  0  0  0  0  0
   19.9491  -11.4708    0.0000 Cl  0  5  0  0  0  0  0  0  0  0
M  END
>  <Substance ID> (712)
712

>  <Mouse_Female_Canc> (712)
1

>  <SAL> (712)
1

>  <Rat_Male_Canc> (712)
1

>  <TD50_Rat> (712)
NP

>  <TD50_Mouse> (712)
NP

>  <Rat_Female_Canc> (712)
1

>  <Canc> (712)
1

>  <MolWeight> (712)
244.26

>  <Mouse_Male_Canc> (712)
1

>  <Mouse_Male_NTP> (712)
NE

>  <ChemName> (712)
Barium Chloride Dihydrate

>  <Rat_Male_NTP> (712)
NE

>  <Reference> (712)
NTP432

>  <Formula> (712)
Cl2Ba.2H2O 

>  <SMILES> (712)
[O].[O].[Ba+2].[Cl-].[Cl-]

>  <Rat_Female_NTP> (712)
NE

>  <CAS> (712)
10326-27-9

>  <Mouse_Female_NTP> (712)
NE

>  <Synonyms> (712)
Barium dichloride dihydrate.

$$$$
713
 

  2  1  0  0  0  0  0  0  0  0999 V2000
   42.6385  -18.8822   -0.0001 Ni  0  0  0  0  0  0  0  0  0  0  0  0
   44.2033  -18.8825    0.0003 O   0  0  0  0  0  0  0  0  0  0  0  0
  1  2  2  0  0  0
M  END
>  <Substance ID> (713)
713

>  <Mouse_Female_Canc> (713)
2

>  <SAL> (713)
ND

>  <Rat_Male_Canc> (713)
3

>  <TD50_Rat> (713)
ND

>  <TD50_Mouse> (713)
NP

>  <Rat_Female_Canc> (713)
3

>  <Canc> (713)
3

>  <MolWeight> (713)
74.69

>  <Mouse_Male_Canc> (713)
1

>  <Mouse_Male_NTP> (713)
NE

>  <ChemName> (713)
Nickel Oxide

>  <Rat_Male_NTP> (713)
SE

>  <Reference> (713)
NTP451

>  <Formula> (713)
ONi

>  <SMILES> (713)
[Ni]=O

>  <Rat_Female_NTP> (713)
SE

>  <CAS> (713)
1313-99-1

>  <Mouse_Female_NTP> (713)
EE

>  <Synonyms> (713)
C.I. 77777; green nickel oxide; mononickel oxide; Nickel (II) oxide; Nickelous oxide; nickel(II) oxide (1:1); nickel(II) oxide, black; Nickel (II) oxide, green; Nickel Monoxide; Nickel oxide; nickel oxide sinter 75; Nickel oxide-tungsten oxide; nickel protoxide.

$$$$
714
 

  0  0  0  0  0  0  0  0  0  0999 V2000
M  END
>  <Substance ID> (714)
714

>  <Mouse_Female_Canc> (714)
1

>  <SAL> (714)
2

>  <Rat_Male_Canc> (714)
3

>  <TD50_Rat> (714)
ND

>  <TD50_Mouse> (714)
NP

>  <Rat_Female_Canc> (714)
3

>  <Canc> (714)
3

>  <MolWeight> (714)
240.26

>  <Mouse_Male_Canc> (714)
1

>  <Mouse_Male_NTP> (714)
NE

>  <ChemName> (714)
Nickel subsulfide

>  <Rat_Male_NTP> (714)
CE

>  <Reference> (714)
NTP453

>  <Formula> (714)
Ni3S2 

>  <SMILES> (714)
Unspecified 

>  <Rat_Female_NTP> (714)
CE

>  <CAS> (714)
12035-72-2

>  <Mouse_Female_NTP> (714)
NE

>  <Synonyms> (714)
alpha-nickel sulfide (3:2); heazlewoodite; Nickel sulfide; nickel sulfide (3:2); nickel tritadisulfide; trinickel disulfide.

$$$$
715
 

 24 25  0  0  0  0  0  0  0  0999 V2000
    1.0083   -0.2078    0.1467 S   0  0  0  0  0  0  0  0  0  1  0  0
    2.4788   -0.5618    1.1606 C   0  0  0  0  0  0  0  0  0  2  0  0
   -0.4175   -0.1429    1.0862 N   0  0  0  0  0  0  0  0  0  3  0  0
    3.8149    0.3574    0.4835 Cl  0  0  0  0  0  0  0  0  0  4  0  0
    2.1673   -0.0760    2.8209 Cl  0  0  0  0  0  0  0  0  0  5  0  0
    2.7960   -2.2872    1.0625 Cl  0  0  0  0  0  0  0  0  0  6  0  0
   -1.2491   -1.2188    0.8259 C   0  0  0  0  0  0  0  0  0  7  0  0
   -1.1262    1.0246    0.8575 C   0  0  0  0  0  0  0  0  0  8  0  0
   -0.9267   -2.3693    1.0229 O   0  0  0  0  0  0  0  0  0  9  0  0
   -2.6100   -0.7854    0.3036 C   0  0  1  0  0  0  0  0  0 10  0  0
   -0.6773    2.1285    1.0730 O   0  0  0  0  0  0  0  0  0 11  0  0
   -2.5318    0.7562    0.3429 C   0  0  1  0  0  0  0  0  0 12  0  0
   -2.9069   -1.3812   -1.0802 C   0  0  0  0  0  0  0  0  0 13  0  0
   -2.7886    1.4511   -1.0018 C   0  0  0  0  0  0  0  0  0 14  0  0
   -2.1628   -0.6333   -2.1520 C   0  0  0  0  0  0  0  0  0 15  0  0
   -2.1084    0.7047   -2.1161 C   0  0  0  0  0  0  0  0  0 16  0  0
   -3.3583   -1.1631    1.0426 H   0  0  0  0  0  0  0  0  0 17  0  0
   -3.2258    1.1667    1.1167 H   0  0  0  0  0  0  0  0  0 18  0  0
   -3.9966   -1.3114   -1.3083 H   0  0  0  0  0  0  0  0  0 19  0  0
   -2.6341   -2.4617   -1.1022 H   0  0  0  0  0  0  0  0  0 20  0  0
   -2.4290    2.5055   -0.9662 H   0  0  0  0  0  0  0  0  0 21  0  0
   -3.8814    1.4815   -1.2233 H   0  0  0  0  0  0  0  0  0 22  0  0
   -1.7100   -1.1941   -2.9854 H   0  0  0  0  0  0  0  0  0 23  0  0
   -1.6095    1.2715   -2.9185 H   0  0  0  0  0  0  0  0  0 24  0  0
  1  2  1  1  0  0  0
  1  3  1  1  0  0  0
  2  4  1  0  0  0  0
  2  5  1  1  0  0  0
  2  6  1  0  0  0  0
  3  7  1  0  0  0  0
  3  8  1  0  0  0  0
  7  9  2  0  0  0  0
  7 10  1  0  0  0  0
  8 11  2  0  0  0  0
  8 12  1  0  0  0  0
 10 12  1  0  0  0  0
 10 13  1  6  0  0  0
 10 17  1  1  0  0  0
 12 14  1  6  0  0  0
 12 18  1  1  0  0  0
 13 15  1  6  0  0  0
 13 19  1  0  0  0  0
 13 20  1  0  0  0  0
 14 16  1  6  0  0  0
 14 21  1  0  0  0  0
 14 22  1  0  0  0  0
 15 16  2  0  0  0  0
 15 23  1  6  0  0  0
 16 24  1  6  0  0  0
M  END
>  <Substance ID> (715)
715

>  <Mouse_Female_Canc> (715)
3

>  <SAL> (715)
3

>  <Rat_Male_Canc> (715)
1

>  <TD50_Rat> (715)
NP

>  <TD50_Mouse> (715)
2110

>  <Rat_Female_Canc> (715)
1

>  <Canc> (715)
3

>  <MolWeight> (715)
300.59

>  <Mouse_Male_Canc> (715)
3

>  <Mouse_Male_NTP> (715)
ND

>  <ChemName> (715)
Captan 

>  <Rat_Male_NTP> (715)
ND

>  <Reference> (715)
NTP15

>  <Formula> (715)
C9H8Cl3NO2S

>  <SMILES> (715)
O=C1N(C(=O)C2C1CC=CC2)SC(Cl)(Cl)Cl

>  <Rat_Female_NTP> (715)
ND

>  <CAS> (715)
133-06-2

>  <Mouse_Female_NTP> (715)
ND

>  <Synonyms> (715)
1,2,3,6-tetrahydro-N-(trichloromethylthio)phthalimide; Orthocide; captex; Captol; Catanex; Dangard; essofungicide 406; flit 406; fungus ban type ii; glyodex 3722; granox pfm; gustafson captan 30-dd; hexacap; Isoindole-1,3(2H)-dione, 3a,4,7,7a-tetrahydro-2-((trichloromethyl)thio)-; kaptan; malipur; Merpan; Merpan 90; Merphan; Meteoro; micro-check 12; neracid; N-trichloromethyl-mercapto-4-cyclohexene-1,2-dicarboximide; N-(trichloro-methylmercapto)-D4-tetrahydrophthalimide; N-(trichloromethylmercapto)-tetrahydrophthalimide; N-trichloromethylthio-3a,4,7,7a-tetrahydrophthalimide; N-Trichloromethylthio-4-cyclohexene-1,2-dicarboximide; N-trichloromethylthio-cis-delta(sup 4)-cyclohexene-1,2-dicarboximide; N-trichloromethylthiocyclohex-4-ene-1,2-dicarboximide; N-((trichloromethyl)thio)tetrahydrophthalimide; osocide; Phytocape; Pillarcap; Sepicap; Sorene; SR406; stauffer captan; Vancide 89; vangard k; Vanguard K; Vondcaptan; Orthocide-406; orthocide 50; orthocide 7.5; Orthocid-83; 3a,4,7,7a-Tetrahydro-2-[(trichloromethyl)thio]-1H-isoindole-1,3(2H)-dione; 3a,4,7,7a-tetrahydro-N-(trichloromethanesulfenyl)phthalimide; 4-Cyclohexene-1,2-dicarboximide, N-((trichloromethyl)thio)-, (Z)-; aacaptan; agrosol s; agrox 2-way and 3-way; amercide; Americide; bangton; Bonide Captan 50%WP; captab; Captaf; captaf 85w; captan 50w; captancapteneet 26,538; Captanex; Captazel; Captec.

$$$$
716
 

 25 27  0  0  0  0  0  0  0  0999 V2000
   -1.3397   -1.1245   -0.0918 C   0  0  2  0  0  0  0  0  0  1  0  0
   -2.1765   -0.2912   -1.0985 C   0  0  0  0  0  0  0  0  0  2  0  0
   -1.8725    1.0224   -0.3379 C   0  0  1  0  0  0  0  0  0  3  0  0
   -2.3437    0.5959    1.0470 C   0  0  0  0  0  0  0  0  0  4  0  0
   -2.0072   -0.6947    1.1976 C   0  0  0  0  0  0  0  0  0  5  0  0
   -0.3309    1.0826   -0.1763 C   0  0  1  0  0  0  0  0  0  6  0  0
    0.0389   -0.4288   -0.1474 C   0  0  2  0  0  0  0  0  0  7  0  0
    2.7257    0.7106   -0.4126 S   0  0  0  0  0  0  0  0  0  8  0  0
    1.8319    2.0859   -0.7493 O   0  0  0  0  0  0  0  0  0  9  0  0
    2.1500    0.0840    1.0287 O   0  0  0  0  0  0  0  0  0 10  0  0
    1.0453   -0.8049    0.9431 C   0  0  0  0  0  0  0  0  0 11  0  0
    0.5030    1.8645   -1.2016 C   0  0  0  0  0  0  0  0  0 12  0  0
    4.1718    1.0269   -0.3179 O   0  0  0  0  0  0  0  0  0 13  0  0
   -1.2830   -2.8977   -0.4109 Cl  0  0  0  0  0  0  0  0  0 14  0  0
   -2.6638    2.5092   -0.9790 Cl  0  0  0  0  0  0  0  0  0 15  0  0
   -3.9181   -0.7267   -1.0817 Cl  0  0  0  0  0  0  0  0  0 16  0  0
   -1.5864   -0.3211   -2.7867 Cl  0  0  0  0  0  0  0  0  0 17  0  0
   -2.2713   -1.6544    2.6056 Cl  0  0  0  0  0  0  0  0  0 18  0  0
   -3.0967    1.5858    2.2419 Cl  0  0  0  0  0  0  0  0  0 19  0  0
   -0.1281    1.5657    0.8127 H   0  0  0  0  0  0  0  0  0 20  0  0
    0.4957   -0.7288   -1.1219 H   0  0  0  0  0  0  0  0  0 21  0  0
    1.4291   -1.8398    0.7900 H   0  0  0  0  0  0  0  0  0 22  0  0
    0.5515   -0.7840    1.9411 H   0  0  0  0  0  0  0  0  0 23  0  0
    0.0665    2.8797   -1.3452 H   0  0  0  0  0  0  0  0  0 24  0  0
    0.5355    1.3861   -2.2039 H   0  0  0  0  0  0  0  0  0 25  0  0
  1  2  1  6  0  0  0
  1  5  1  1  0  0  0
  1  7  1  0  0  0  0
  1 14  1  0  0  0  0
  2  3  1  1  0  0  0
  2 16  1  0  0  0  0
  2 17  1  6  0  0  0
  3  4  1  1  0  0  0
  3  6  1  0  0  0  0
  3 15  1  0  0  0  0
  4  5  2  0  0  0  0
  4 19  1  1  0  0  0
  5 18  1  1  0  0  0
  6  7  1  0  0  0  0
  6 12  1  6  0  0  0
  6 20  1  1  0  0  0
  7 11  1  1  0  0  0
  7 21  1  6  0  0  0
  8  9  1  0  0  0  0
  8 10  1  1  0  0  0
  8 13  2  0  0  0  0
  9 12  1  0  0  0  0
 10 11  1  0  0  0  0
 11 22  1  0  0  0  0
 11 23  1  1  0  0  0
 12 24  1  0  0  0  0
 12 25  1  6  0  0  0
M  END
>  <Substance ID> (716)
716

>  <Mouse_Female_Canc> (716)
1

>  <SAL> (716)
1

>  <Rat_Male_Canc> (716)
ND

>  <TD50_Rat> (716)
NP

>  <TD50_Mouse> (716)
NP

>  <Rat_Female_Canc> (716)
1

>  <Canc> (716)
1

>  <MolWeight> (716)
406.92

>  <Mouse_Male_Canc> (716)
ND

>  <Mouse_Male_NTP> (716)
ND

>  <ChemName> (716)
Endosulfan

>  <Rat_Male_NTP> (716)
ND

>  <Reference> (716)
NTP62

>  <Formula> (716)
C9H6Cl6O3S

>  <SMILES> (716)
Cl[C@@]3(Cl)[C@@]1(Cl)C(/Cl)=C(/Cl)[C@]3(Cl)[C@H]2[C@H]1[C@H2]OS(=O)O[C@H2]2

>  <Rat_Female_NTP> (716)
ND

>  <CAS> (716)
115-29-7

>  <Mouse_Female_NTP> (716)
ND

>  <Synonyms> (716)
1,2,3,4,7,7-Hexachloro-1,5,5a,6,9,9a-hexahydro-6,9-methano-2,4,3-benzodioxathiepin-3-oxide; 1,2,3,4,7,7-Hexachloro-5-norbornene-2,3-dimethanol, cyclic sulfite; 1,2,3,4,7,7-hexachlorobicyclo[2.2.1]-2-heptene-5,6-bisoxymethylene sulfite; 1,2,3,4,7,7-hexachlorobicyclo[2.2.1]hepten-5,6-bioxymethylene sulfite; 1,4,5,6,7,7-hexachloro-5-norbornene-2,3-dimethanol, cyclic sulfate; 1,4,5,6,7,7-hexachloro-5-norbornene-2,3-dimethanol cyclic sulfite; 1,5,5a,6,9,9a-hexahydro-3-oxo-6,7,8,9,10,10-Hexachloro-6,9-methano-2,4,3-benzodioxathiepin; 5-Norbornene-2,3-dimethanol, 1,4,5,6,7,7-hexachloro-, cyclic sulfite; 6,7,8,9,10,10-Hexachloro-1,5,5a,6,9,9a-hexahydro-6,9-methano-2,4,3-benzodioxathiepin 3-oxide; alpha,beta-1,2,3,4,7,7-hexachlorobicyclo[2.2.1]-2-heptene-5,6-bisoxy-methylene sulfite; Beta-6,7,8,9,10,10-hexachloro-1,5,5a,6,9,9a-hexahydro-endo-6,9-methano-2,4,3-benzodioxathiepin 3-oxide; benzo[e][1,3,2]dioxathiepin-3-oxide; Benzoepin; beosit; BIO 5462; bio 5,642; crisulfan; cyclodan; devisulfan; endocel; endosol; Endosulfan 35EC; ensure; fmc 5462; hexachlorohexahydromethano 2,4,3-benzodioxathiepin-3-oxide; hildan; hoe 2,671; insectophene; kop-thiodan; Malix; nia 5462; niagra 5462; oms 570; Sulfurous acid, cyclic ester with 1,4,5,6,7,7-hexachloro-5-norbornene-2,3-dimethanol; thifor; thimul; Thiodan; thiofor; thiomul; Thionex; Thiosulfan; tionel; tiovel.

$$$$
717
 

  9  8  0  0  0  0  0  0  0  0999 V2000
   51.6407  -55.2577   -0.0001 C   0  0  0  0  0  0  0  0  0  0  0  0
   50.4380  -55.8284   -0.0005 C   0  0  0  0  0  0  0  0  0  0  0  0
   49.2025  -54.9754    0.0003 C   0  0  0  0  0  0  0  0  0  0  0  0
   47.7711  -56.0111   -0.0000 Cl  0  0  0  0  0  0  0  0  0  0  0  0
   52.4637  -55.8258   -0.0006 H   0  0  0  0  0  0  0  0  0  0  0  0
   51.7213  -54.2610    0.0008 H   0  0  0  0  0  0  0  0  0  0  0  0
   50.3575  -56.8251   -0.0014 H   0  0  0  0  0  0  0  0  0  0  0  0
   49.1963  -54.3988    0.8174 H   0  0  0  0  0  0  0  0  0  0  0  0
   49.1959  -54.3977   -0.8159 H   0  0  0  0  0  0  0  0  0  0  0  0
  1  2  2  0  0  0  0
  2  3  1  0  0  0  0
  3  4  1  0  0  0  0
  1  5  1  0  0  0  0
  1  6  1  0  0  0  0
  2  7  1  0  0  0  0
  3  8  1  0  0  0  0
  3  9  1  0  0  0  0
M  END
>  <Substance ID> (717)
717

>  <Mouse_Female_Canc> (717)
2

>  <SAL> (717)
3

>  <Rat_Male_Canc> (717)
1

>  <TD50_Rat> (717)
NP

>  <TD50_Mouse> (717)
NP

>  <Rat_Female_Canc> (717)
1

>  <Canc> (717)
2

>  <MolWeight> (717)
76.53

>  <Mouse_Male_Canc> (717)
2

>  <Mouse_Male_NTP> (717)
ND

>  <ChemName> (717)
Allyl Chloride 

>  <Rat_Male_NTP> (717)
ND

>  <Reference> (717)
NTP73

>  <Formula> (717)
C3H5Cl

>  <SMILES> (717)
C=CCCl

>  <Rat_Female_NTP> (717)
ND

>  <CAS> (717)
107-05-1

>  <Mouse_Female_NTP> (717)
ND

>  <Synonyms> (717)
1-chloro-2-propene; 1-chloro propene-2; 2-propenyl chloride; 3-chloro-1-propene; 3-chloro-1-propylene; 3-chloroprene; 3-Chloropropene; 3-chloropropene-1; 3-chloropropylene; Alpha-chloropropylene; Chloroallylene; Chloropropene.

$$$$
718
 

 27 28  0  0  0  0  0  0  0  0999 V2000
   48.5022  -70.9073    0.2471 C   0  0  0  0  0  0  0  0  0  0  0  0
   49.8167  -71.1089    0.1887 C   0  0  0  0  0  0  0  0  0  0  0  0
   50.6943  -70.0524   -0.2616 C   0  0  0  0  0  0  0  0  0  0  0  0
   50.1830  -68.8935   -0.6621 C   0  0  0  0  0  0  0  0  0  0  0  0
   48.7294  -68.6687   -0.6580 C   0  0  0  0  0  0  0  0  0  0  0  0
   47.9072  -69.6182   -0.1626 C   0  0  0  0  0  0  0  0  0  0  0  0
   43.2763  -67.2783   -0.2213 C   0  0  0  0  0  0  0  0  0  0  0  0
   44.0973  -68.3230   -0.3006 C   0  0  0  0  0  0  0  0  0  0  0  0
   45.5058  -68.2241    0.1392 C   0  0  0  0  0  0  0  0  0  0  0  0
   45.9208  -67.0591    0.6804 C   0  0  0  0  0  0  0  0  0  0  0  0
   45.0130  -65.9035    0.7063 C   0  0  0  0  0  0  0  0  0  0  0  0
   43.7598  -66.0112    0.2790 C   0  0  0  0  0  0  0  0  0  0  0  0
   46.3456  -69.5386   -0.0260 C   0  0  0  0  0  0  0  0  0  0  0  0
   45.5906  -64.3796    1.2743 Cl  0  0  0  0  0  0  0  0  0  0  0  0
   43.6117  -69.5333   -0.7812 O   0  0  0  0  0  0  0  0  0  0  0  0
   51.2406  -67.6276   -1.1702 Cl  0  0  0  0  0  0  0  0  0  0  0  0
   50.4739  -72.6419    0.6395 Cl  0  0  0  0  0  0  0  0  0  0  0  0
   47.6759  -71.9371    0.6797 O   0  0  0  0  0  0  0  0  0  0  0  0
   47.4935  -66.8306    1.3767 Cl  0  0  0  0  0  0  0  0  0  0  0  0
   48.1716  -67.1627   -1.3155 Cl  0  0  0  0  0  0  0  0  0  0  0  0
   41.6256  -67.4396   -0.7065 Cl  0  0  0  0  0  0  0  0  0  0  0  0
   51.6842  -70.1936   -0.2717 H   0  0  0  0  0  0  0  0  0  0  0  0
   43.1522  -65.2173    0.3033 H   0  0  0  0  0  0  0  0  0  0  0  0
   46.1228  -70.0954    0.7742 H   0  0  0  0  0  0  0  0  0  0  0  0
   45.9867  -69.9784   -0.8492 H   0  0  0  0  0  0  0  0  0  0  0  0
   44.3458  -70.2122   -0.7786 H   0  0  0  0  0  0  0  0  0  0  0  0
   46.7245  -71.6296    0.6667 H   0  0  0  0  0  0  0  0  0  0  0  0
  1  2  2  0  0  0  0
  2  3  1  0  0  0  0
  3  4  2  0  0  0  0
  4  5  1  0  0  0  0
  5  6  2  0  0  0  0
  6  1  1  0  0  0  0
  7  8  2  0  0  0  0
  8  9  1  0  0  0  0
  9 10  2  0  0  0  0
 10 11  1  0  0  0  0
 11 12  2  0  0  0  0
 12  7  1  0  0  0  0
  9 13  1  0  0  0  0
 13  6  1  0  0  0  0
 11 14  1  0  0  0  0
  8 15  1  0  0  0  0
  4 16  1  0  0  0  0
  2 17  1  0  0  0  0
  1 18  1  0  0  0  0
 10 19  1  0  0  0  0
  5 20  1  0  0  0  0
  7 21  1  0  0  0  0
  3 22  1  0  0  0  0
 12 23  1  0  0  0  0
 13 24  1  0  0  0  0
 13 25  1  0  0  0  0
 15 26  1  0  0  0  0
 18 27  1  0  0  0  0
M  END
>  <Substance ID> (718)
718

>  <Mouse_Female_Canc> (718)
ND

>  <SAL> (718)
1

>  <Rat_Male_Canc> (718)
1

>  <TD50_Rat> (718)
NP

>  <TD50_Mouse> (718)
ND

>  <Rat_Female_Canc> (718)
1

>  <Canc> (718)
1

>  <MolWeight> (718)
406.91

>  <Mouse_Male_Canc> (718)
ND

>  <Mouse_Male_NTP> (718)
ND

>  <ChemName> (718)
Hexachlorophene 

>  <Rat_Male_NTP> (718)
ND

>  <Reference> (718)
NTP40

>  <Formula> (718)
C13H6Cl6O2

>  <SMILES> (718)
OC1=C(C=C(C(=C1CC2=C(C(=CC(=C2Cl)Cl)Cl)O)Cl)Cl)Cl

>  <Rat_Female_NTP> (718)
ND

>  <CAS> (718)
70-30-4

>  <Mouse_Female_NTP> (718)
ND

>  <Synonyms> (718)
2,2'-Dihydroxy-3,3',5,5',6,6'-hexachlorodiphenylmethane; 2,2'-dihydroxy-3,5,6,3',5',6'-hexachlorodiphenylmethane; 2,2'-methylenebis[3,4,6-trichlorophenol]; Acigena; Almederm; AT-7; B32; Bis(2,3,5-trichloro-6-hydroxyphenyl)methane; bis(2-hydroxy-3,5,6-trichlorophenyl)methane; bis(3,5,6-trichloro-2-hydroxyphenyl)methane; Bilevon; Bivelon; Compound G-11; Cotofilm; Dermadex; Eleven; Exofene; Fomac; Fostril; G-11; Gamophene; Germa-medica; HCP; Hexabalm; Hexafen; Hexide; hexophene; Hexosan; methane, bis(2,3,5-trichloro-6-hydroxyphenyl); Methylenebis(3,4,6-trichlorophenol); Nabac; Neosept V; Phisodan; pHisohex; Ritosept; Septisol; Septofen; Steral; Steraskin; Surgi-Cen; Surofene; Tersaseptic; Trichlorophene; Turgex.

$$$$
719
 

 70 73  0  0  0  0  0  0  0  0999 V2000
    3.3995  -14.5469   -0.0444 C   0  0  0  0  0  0  0  0  0  0  0  0
    4.7256  -14.6765   -0.0281 C   0  0  0  0  0  0  0  0  0  0  0  0
    5.5935  -13.4845    0.0122 C   0  0  0  0  0  0  0  0  0  0  0  0
    5.0596  -12.2635    0.0283 C   0  0  0  0  0  0  0  0  0  0  0  0
    3.5798  -12.1386    0.0112 C   0  0  0  0  0  0  0  0  0  0  0  0
    2.8003  -13.2177   -0.0228 C   0  0  0  0  0  0  0  0  0  0  0  0
    5.8591   -7.1778   -0.3041 C   0  0  0  0  0  0  0  0  0  0  0  0
    4.3951   -6.8512   -0.4886 C   0  0  0  0  0  0  0  0  0  0  0  0
    5.4395   -9.7657   -0.0042 C   0  0  0  0  0  0  0  0  0  0  0  0
    6.3532   -8.5179    0.2922 C   0  0  2  0  0  0  0  0  0  0  0  0
    5.9326  -11.1030    0.0759 N   0  0  0  0  0  0  0  0  0  0  0  0
    7.8289   -8.6333    0.1169 N   0  0  0  0  0  0  0  0  0  0  0  0
    6.6943   -6.3125   -0.6017 O   0  0  0  0  0  0  0  0  0  0  0  0
    4.2408   -9.5935   -0.2525 O   0  0  0  0  0  0  0  0  0  0  0  0
    8.4806   -9.6577    0.1010 N   0  0  0  0  0  0  0  0  0  0  0  0
   21.6317   -8.7818    0.1422 C   0  0  0  0  0  0  0  0  0  0  0  0
   21.8753   -6.2150    0.0170 C   0  0  0  0  0  0  0  0  0  0  0  0
   21.0465   -7.4417    0.1117 N   0  0  0  0  0  0  0  0  0  0  0  0
   21.3198  -11.3412   -0.3705 C   0  0  0  0  0  0  0  0  0  0  0  0
   22.7993  -11.5798   -0.5571 C   0  0  0  0  0  0  0  0  0  0  0  0
   20.7562  -10.0725    0.3141 C   0  0  1  0  0  0  0  0  0  0  0  0
   16.4529  -10.4436   -0.0417 C   0  0  0  0  0  0  0  0  0  0  0  0
   17.3639  -11.9151   -0.0396 Cl  0  0  0  0  0  0  0  0  0  0  0  0
   19.2823   -9.9980    0.1178 N   0  0  0  0  0  0  0  0  0  0  0  0
   18.5930   -8.9963    0.1162 N   0  0  0  0  0  0  0  0  0  0  0  0
   17.1396   -9.1080    0.0141 C   0  0  0  0  0  0  0  0  0  0  0  0
   15.1176  -10.5099   -0.0858 C   0  0  0  0  0  0  0  0  0  0  0  0
   16.3837   -8.0100   -0.0021 C   0  0  0  0  0  0  0  0  0  0  0  0
   14.8961   -8.0974   -0.0552 C   0  0  0  0  0  0  0  0  0  0  0  0
   14.2836   -9.3022   -0.0843 C   0  0  0  0  0  0  0  0  0  0  0  0
   11.9345   -8.1714   -0.0722 C   0  0  0  0  0  0  0  0  0  0  0  0
   10.5988   -8.2523   -0.0285 C   0  0  0  0  0  0  0  0  0  0  0  0
    9.9260   -9.5765    0.0124 C   0  0  0  0  0  0  0  0  0  0  0  0
   10.6722  -10.6712   -0.0137 C   0  0  0  0  0  0  0  0  0  0  0  0
   12.1623  -10.5880   -0.0655 C   0  0  0  0  0  0  0  0  0  0  0  0
   12.7730   -9.3788   -0.0838 C   0  0  0  0  0  0  0  0  0  0  0  0
   20.5337  -12.2222   -0.7440 O   0  0  0  0  0  0  0  0  0  0  0  0
   22.8631   -8.8918    0.0944 O   0  0  0  0  0  0  0  0  0  0  0  0
    9.9068  -12.2240    0.0371 Cl  0  0  0  0  0  0  0  0  0  0  0  0
   23.2099   -6.2704   -0.0523 C   0  0  0  0  0  0  0  0  0  0  0  0
   24.0145   -5.0499   -0.1344 C   0  0  0  0  0  0  0  0  0  0  0  0
   23.4163   -3.8624   -0.1373 C   0  0  0  0  0  0  0  0  0  0  0  0
   21.9551   -3.7855   -0.0621 C   0  0  0  0  0  0  0  0  0  0  0  0
   21.2238   -4.8999    0.0094 C   0  0  0  0  0  0  0  0  0  0  0  0
    6.2160   -8.3810    1.3748 H   0  0  0  0  0  0  0  0  0  0  0  0
   20.8902  -10.3036    1.3805 H   0  0  0  0  0  0  0  0  0  0  0  0
    2.8168  -15.3591   -0.0712 H   0  0  0  0  0  0  0  0  0  0  0  0
    5.1354  -15.5886   -0.0433 H   0  0  0  0  0  0  0  0  0  0  0  0
    6.5874  -13.5931    0.0274 H   0  0  0  0  0  0  0  0  0  0  0  0
    3.1622  -11.2301    0.0253 H   0  0  0  0  0  0  0  0  0  0  0  0
    1.8054  -13.1167   -0.0336 H   0  0  0  0  0  0  0  0  0  0  0  0
    4.3043   -5.9387   -0.8874 H   0  0  0  0  0  0  0  0  0  0  0  0
    3.9335   -6.8742    0.3982 H   0  0  0  0  0  0  0  0  0  0  0  0
    3.9773   -7.5242   -1.0990 H   0  0  0  0  0  0  0  0  0  0  0  0
    6.9179  -11.2468    0.1683 H   0  0  0  0  0  0  0  0  0  0  0  0
   20.0518   -7.3491    0.1563 H   0  0  0  0  0  0  0  0  0  0  0  0
   22.9406  -12.4553   -1.0191 H   0  0  0  0  0  0  0  0  0  0  0  0
   23.2496  -11.5981    0.3356 H   0  0  0  0  0  0  0  0  0  0  0  0
   23.1888  -10.8442   -1.1114 H   0  0  0  0  0  0  0  0  0  0  0  0
   14.6758  -11.4064   -0.1206 H   0  0  0  0  0  0  0  0  0  0  0  0
   16.8223   -7.1116    0.0217 H   0  0  0  0  0  0  0  0  0  0  0  0
   14.3487   -7.2607   -0.0693 H   0  0  0  0  0  0  0  0  0  0  0  0
   12.3705   -7.2717   -0.0973 H   0  0  0  0  0  0  0  0  0  0  0  0
   10.0503   -7.4161   -0.0233 H   0  0  0  0  0  0  0  0  0  0  0  0
   12.7093  -11.4249   -0.0866 H   0  0  0  0  0  0  0  0  0  0  0  0
   23.6659   -7.1604   -0.0478 H   0  0  0  0  0  0  0  0  0  0  0  0
   25.0113   -5.1093   -0.1881 H   0  0  0  0  0  0  0  0  0  0  0  0
   23.9613   -3.0256   -0.1907 H   0  0  0  0  0  0  0  0  0  0  0  0
   21.5032   -2.8934   -0.0642 H   0  0  0  0  0  0  0  0  0  0  0  0
   20.2269   -4.8383    0.0580 H   0  0  0  0  0  0  0  0  0  0  0  0
  1  2  2  0  0  0  0
  2  3  1  0  0  0  0
  3  4  2  0  0  0  0
  4  5  1  0  0  0  0
  5  6  2  0  0  0  0
  6  1  1  0  0  0  0
  7  8  1  0  0  0  0
  9 10  1  0  0  0  0
 10  7  1  0  0  0  0
  9 11  1  0  0  0  0
 11  4  1  0  0  0  0
 10 12  1  0  0  0  0
  7 13  2  0  0  0  0
  9 14  2  0  0  0  0
 12 15  2  0  0  0  0
 17 18  1  0  0  0  0
 18 16  1  0  0  0  0
 19 20  1  0  0  0  0
 16 21  1  0  0  0  0
 21 19  1  0  0  0  0
 22 23  1  0  0  0  0
 24 25  2  0  0  0  0
 25 26  1  0  0  0  0
 26 22  1  0  0  0  0
 27 22  2  0  0  0  0
 26 28  2  0  0  0  0
 28 29  1  0  0  0  0
 29 30  2  0  0  0  0
 30 27  1  0  0  0  0
 31 32  2  0  0  0  0
 32 33  1  0  0  0  0
 33 34  2  0  0  0  0
 34 35  1  0  0  0  0
 35 36  2  0  0  0  0
 36 31  1  0  0  0  0
 15 33  1  0  0  0  0
 36 30  1  0  0  0  0
 24 21  1  0  0  0  0
 19 37  2  0  0  0  0
 16 38  2  0  0  0  0
 34 39  1  0  0  0  0
 17 40  2  0  0  0  0
 40 41  1  0  0  0  0
 41 42  2  0  0  0  0
 42 43  1  0  0  0  0
 43 44  2  0  0  0  0
 44 17  1  0  0  0  0
 10 45  1  0  0  0  0
 21 46  1  0  0  0  0
  1 47  1  0  0  0  0
  2 48  1  0  0  0  0
  3 49  1  0  0  0  0
  5 50  1  0  0  0  0
  6 51  1  0  0  0  0
  8 52  1  0  0  0  0
  8 53  1  0  0  0  0
  8 54  1  0  0  0  0
 11 55  1  0  0  0  0
 18 56  1  0  0  0  0
 20 57  1  0  0  0  0
 20 58  1  0  0  0  0
 20 59  1  0  0  0  0
 27 60  1  0  0  0  0
 28 61  1  0  0  0  0
 29 62  1  0  0  0  0
 31 63  1  0  0  0  0
 32 64  1  0  0  0  0
 35 65  1  0  0  0  0
 40 66  1  0  0  0  0
 41 67  1  0  0  0  0
 42 68  1  0  0  0  0
 43 69  1  0  0  0  0
 44 70  1  0  0  0  0
M  END
>  <Substance ID> (719)
719

>  <Mouse_Female_Canc> (719)
1

>  <SAL> (719)
1

>  <Rat_Male_Canc> (719)
1

>  <TD50_Rat> (719)
NP

>  <TD50_Mouse> (719)
NP

>  <Rat_Female_Canc> (719)
1

>  <Canc> (719)
1

>  <MolWeight> (719)
629.50

>  <Mouse_Male_Canc> (719)
1

>  <Mouse_Male_NTP> (719)
ND

>  <ChemName> (719)
C.I. pigment yellow 12

>  <Rat_Male_NTP> (719)
ND

>  <Reference> (719)
NTP30

>  <Formula> (719)
C32H26Cl2N6O4

>  <SMILES> (719)
C1=CC=C(NC(=O)C(/N=N/C2=C(Cl)C=C(C3=CC(Cl)=C(/N=N/C(C(=O)NC4=CC=CC=C4)C(=O)C)C=C3)C=C2)C(=O)C)C=C1

>  <Rat_Female_NTP> (719)
ND

>  <CAS> (719)
6358-85-6

>  <Mouse_Female_NTP> (719)
ND

>  <Synonyms> (719)
2,2'-((3,3'-dichloro(1,1'-biphenyl)-4,4'-diyl)bis(azo))bis(3-oxo-N-phenyl-butanamide); 2,2'-((3,3'-dichloro-4,4'-biphenylylene)diazo)bisacetoanilide; diarylide yellow aaa; diarylide yellow yt 553d; brilliant yellow slurry; carnelio yellow gx; C.I. 21090; C.I. 21100; C.I. Pigment Yellow 13; dainichi benzidine yellow g; dainichi benzidine yellow grt; dainichi benzidine yellow gt; dainichi benzidine yellow gy; dainichi benzidine yellow gyt; daltolite fast yellow gt; eljon yellow bg; graphtol yellow a-hg; hancock yellow 10010; helic yellow gw; helioyellow gw; helio yellow gwn; irgalite yellow bo; irgalite yellow bst; irgalite yellow btr; isol benzidine yellow g; isol benzidine yellow g 2537; isol benzidine yellow gapropyl; isol benzidine yellow gbpropyl; isol benzidine yellow g special; kromon yellow gxt; kromon yellow mtb; light yellow jb; light yellow jbo; light yellow jbt; lodestone yellow yb-57; monolite yellow 2gra; monolite yellow gra; monolite yellow gt; monolite yellow gta; monolite yellow gtn; monolite yellow gtna; monolite yellow gts; no. 49 conc. benzidine yellow; permanent yellow dhg; permanent yellow ghg; pigment yellow 12; pigment yellow gt; rangoon yellow; recolite yellow bg; recolite yellow bgt; sanyo benzidine yellow-b; segnale light yellow 2gr; segnale light yellow 2grt; siloton yellow 3gx; siloton yellow gtx; symuler fast yellow gf; verona yellow x-1791; vulcafor fast yellow gt; vulcafor fast yellow gta; vulcol fast yellow gr; 3,3'-Dichloro-4,4'-[2-oxo-1-(N-phenylcarbamoyl)propylazo]-1,1'-biphenyl; AAA Diarylide Yellow; amazon yellow x2485; benzidine lacquer yellow g; benzidine yellow; benzidine yellow 45-2650; benzidine yellow 45-2680; benzidine yellow 45-2685; benzidine yellow abz-245; benzidine yellow e; benzidine yellow g; benzidine yellow gf; benzidine yellow gr; benzidine yellow gt; benzidine yellow gtr; benzidine yellow hg; benzidine yellow hg plv; benzidine yellow toner; benzidine yellow toner ya-8081; benzidine yellow toner yt-378; benzidine yellow wd-266 (water dispersible); benzidine yellow yb-1; bis(acetyl-N-phenylcarbamylmethyl)-4,4'-bisazo-3,3'-dichlorobiphenyl; Diarylanilide yellow.

$$$$
720
 

 29 30  0  0  0  0  0  0  0  0999 V2000
    5.8156  -18.4607   -0.8354 C   0  0  2  0  0  0  0  0  0  0  0  0
    6.1343  -18.6063    0.7020 C   0  0  2  0  0  0  0  0  0  0  0  0
    7.1564  -18.3519   -1.4881 O   0  0  0  0  0  0  0  0  0  0  0  0
    7.6429  -18.7748    0.5853 C   0  0  2  0  0  0  0  0  0  0  0  0
    8.1120  -17.8059   -0.4533 C   0  0  1  0  0  0  0  0  0  0  0  0
    5.1396  -17.1189   -1.1035 C   0  0  0  0  0  0  0  0  0  0  0  0
    5.1764  -19.2705   -1.2315 H   0  0  0  0  0  0  0  0  0  0  0  0
    8.2089  -16.2675   -0.1190 N   0  0  0  0  0  0  0  0  0  0  0  0
    9.1434  -18.0600   -0.7216 H   0  0  0  0  0  0  0  0  0  0  0  0
    9.2849  -15.5901   -0.7864 C   0  0  0  0  0  0  0  0  0  0  0  0
    9.4871  -14.3446   -0.6308 N   0  0  0  0  0  0  0  0  0  0  0  0
    8.6635  -13.5483    0.1811 C   0  0  0  0  0  0  0  0  0  0  0  0
    7.6426  -14.0383    0.7688 N   0  0  0  0  0  0  0  0  0  0  0  0
    7.3208  -15.3869    0.6558 C   0  0  0  0  0  0  0  0  0  0  0  0
    6.3136  -15.7977    1.2380 O   0  0  0  0  0  0  0  0  0  0  0  0
    8.9658  -12.1947    0.3464 N   0  0  0  0  0  0  0  0  0  0  0  0
    7.8558  -20.0327   -0.0291 O   0  0  0  0  0  0  0  0  0  0  0  0
    8.1815  -18.7361    1.5450 H   0  0  0  0  0  0  0  0  0  0  0  0
    5.6929  -19.7921    1.3844 O   0  0  0  0  0  0  0  0  0  0  0  0
    5.8815  -17.6810    1.2078 H   0  0  0  0  0  0  0  0  0  0  0  0
    3.9122  -17.0372   -0.4169 O   0  0  0  0  0  0  0  0  0  0  0  0
    5.7393  -16.3810   -0.7938 H   0  0  0  0  0  0  0  0  0  0  0  0
    4.9740  -17.0246   -2.0852 H   0  0  0  0  0  0  0  0  0  0  0  0
    9.8901  -16.1110   -1.3884 H   0  0  0  0  0  0  0  0  0  0  0  0
    8.3852  -11.6195    0.9226 H   0  0  0  0  0  0  0  0  0  0  0  0
    9.7627  -11.8008   -0.1115 H   0  0  0  0  0  0  0  0  0  0  0  0
    8.8376  -20.1932   -0.1297 H   0  0  0  0  0  0  0  0  0  0  0  0
    5.9642  -19.7446    2.3457 H   0  0  0  0  0  0  0  0  0  0  0  0
    3.4835  -16.1532   -0.6034 H   0  0  0  0  0  0  0  0  0  0  0  0
  1  2  1  1  0  0  0
  1  3  1  0  0  0  0
  2  4  1  0  0  0  0
  3  5  1  0  0  0  0
  5  4  1  1  0  0  0
  1  6  1  0  0  0  0
  1  7  1  0  0  0  0
  5  8  1  0  0  0  0
  5  9  1  0  0  0  0
  8 10  1  0  0  0  0
  8 14  1  0  0  0  0
 10 11  2  0  0  0  0
 11 12  1  0  0  0  0
 12 13  2  0  0  0  0
 13 14  1  0  0  0  0
 14 15  2  0  0  0  0
 12 16  1  0  0  0  0
  4 17  1  0  0  0  0
  4 18  1  0  0  0  0
  2 19  1  0  0  0  0
  2 20  1  0  0  0  0
  6 21  1  0  0  0  0
  6 22  1  0  0  0  0
  6 23  1  0  0  0  0
 10 24  1  0  0  0  0
 16 25  1  0  0  0  0
 16 26  1  0  0  0  0
 17 27  1  0  0  0  0
 19 28  1  0  0  0  0
 21 29  1  0  0  0  0
M  END
>  <Substance ID> (720)
720

>  <Mouse_Female_Canc> (720)
3

>  <SAL> (720)
3

>  <Rat_Male_Canc> (720)
3

>  <TD50_Rat> (720)
0.17

>  <TD50_Mouse> (720)
0.0774

>  <Rat_Female_Canc> (720)
ND

>  <Canc> (720)
3

>  <MolWeight> (720)
244.21

>  <Mouse_Male_Canc> (720)
3

>  <Mouse_Male_NTP> (720)
ND

>  <ChemName> (720)
5-Azacytidine

>  <Rat_Male_NTP> (720)
ND

>  <Reference> (720)
Toxnet

>  <Formula> (720)
C8H12N4O5

>  <SMILES> (720)
O=C1/N=C(\N=C/N1[C@@H]2O[C@@H](C(O)C2O)CO)N

>  <Rat_Female_NTP> (720)
ND

>  <CAS> (720)
320-67-2

>  <Mouse_Female_NTP> (720)
ND

>  <Synonyms> (720)
4-amino-1-beta-D-ribofuranosyl-1,3,5-triazin-2(1H)-one; 4-amino-1-beta-D-ribofuranosyl-s-triazin-2(1H)-one; 5-AC; 5-AzaC; 5 AZC; 5-AZCR; Antibiotic u 18496; Azacitidine; Azacytidine; ladakamycin; mylosar; u 18496; wr 183027.

$$$$
721
 

 17 17  0  0  0  0  0  0  0  0999 V2000
    6.6318  -46.7885    0.0002 C   0  0  0  0  0  0  0  0  0  0  0  0
    4.2048  -46.8354   -0.0008 C   0  0  0  0  0  0  0  0  0  0  0  0
    4.1946  -48.1670   -0.0005 C   0  0  0  0  0  0  0  0  0  0  0  0
    5.4532  -48.9055    0.0004 C   0  0  0  0  0  0  0  0  0  0  0  0
    6.6098  -48.2478   -0.0001 C   0  0  0  0  0  0  0  0  0  0  0  0
    5.4802  -46.1038   -0.0011 C   0  0  0  0  0  0  0  0  0  0  0  0
    7.8124  -48.9525    0.0008 N   0  0  0  0  0  0  0  0  0  0  0  0
    5.4487  -44.6265   -0.0002 C   0  0  0  0  0  0  0  0  0  0  0  0
    6.6166  -43.8746    0.0010 O   0  0  0  0  0  0  0  0  0  0  0  0
    8.1694  -45.9937    0.0005 Cl  0  0  0  0  0  0  0  0  0  0  0  0
    4.3590  -44.0444   -0.0005 O   0  0  0  0  0  0  0  0  0  0  0  0
    2.6940  -49.0245    0.0005 Cl  0  0  0  0  0  0  0  0  0  0  0  0
    3.3414  -46.3308   -0.0009 H   0  0  0  0  0  0  0  0  0  0  0  0
    5.4464  -49.9054    0.0013 H   0  0  0  0  0  0  0  0  0  0  0  0
    8.6817  -48.4582    0.0005 H   0  0  0  0  0  0  0  0  0  0  0  0
    7.8060  -49.9525    0.0017 H   0  0  0  0  0  0  0  0  0  0  0  0
    6.3870  -42.9014    0.0014 H   0  0  0  0  0  0  0  0  0  0  0  0
  2  3  2  0  0  0  0
  3  4  1  0  0  0  0
  4  5  2  0  0  0  0
  5  1  1  0  0  0  0
  6  2  1  0  0  0  0
  5  7  1  0  0  0  0
  6  1  2  0  0  0  0
  6  8  1  0  0  0  0
  8  9  1  0  0  0  0
  1 10  1  0  0  0  0
  8 11  2  0  0  0  0
  3 12  1  0  0  0  0
  2 13  1  0  0  0  0
  4 14  1  0  0  0  0
  7 15  1  0  0  0  0
  7 16  1  0  0  0  0
  9 17  1  0  0  0  0
M  END
>  <Substance ID> (721)
721

>  <Mouse_Female_Canc> (721)
3

>  <SAL> (721)
3

>  <Rat_Male_Canc> (721)
1

>  <TD50_Rat> (721)
NP

>  <TD50_Mouse> (721)
5230

>  <Rat_Female_Canc> (721)
1

>  <Canc> (721)
3

>  <MolWeight> (721)
206.03

>  <Mouse_Male_Canc> (721)
2

>  <Mouse_Male_NTP> (721)
ND

>  <ChemName> (721)
Chloramben

>  <Rat_Male_NTP> (721)
ND

>  <Reference> (721)
NTP25

>  <Formula> (721)
C7H5Cl2NO2

>  <SMILES> (721)
ClC1=C(C=C(C=C1C(=O)O)Cl)N

>  <Rat_Female_NTP> (721)
ND

>  <CAS> (721)
133-90-4

>  <Mouse_Female_NTP> (721)
ND

>  <Synonyms> (721)
2,5-Dichloro-3-aminobenzoic acid; 3-Amino-2,5-dichlorobenzoic acid; ACP M-629; acp-m-728; Ambiben; Amiben; amiben ds; Amiben methyl; amibin; Amoben; Chlorambed; Ornamental Weeder; Vegiben; Weedone Garden Weeder.

$$$$
722
 

 14 14  0  0  0  0  0  0  0  0999 V2000
    5.9438  -56.8736    0.0003 N   0  0  0  0  0  0  0  0  0  0  0  0
    7.2143  -56.9110    0.0003 C   0  0  0  0  0  0  0  0  0  0  0  0
    7.9830  -55.6642   -0.0001 C   0  0  0  0  0  0  0  0  0  0  0  0
    7.3772  -54.5468   -0.0004 N   0  0  0  0  0  0  0  0  0  0  0  0
    5.9763  -54.5086   -0.0003 C   0  0  0  0  0  0  0  0  0  0  0  0
    5.2785  -55.6438    0.0000 C   0  0  0  0  0  0  0  0  0  0  0  0
    3.8170  -55.6041    0.0001 C   0  0  0  0  0  0  0  0  0  0  0  0
    3.0687  -56.8233   -0.0001 N   0  0  0  0  0  0  0  0  0  0  0  0
    3.2289  -54.5173    0.0002 O   0  0  0  0  0  0  0  0  0  0  0  0
    7.6888  -57.7913    0.0005 H   0  0  0  0  0  0  0  0  0  0  0  0
    8.9827  -55.6920   -0.0002 H   0  0  0  0  0  0  0  0  0  0  0  0
    5.5002  -53.6292   -0.0004 H   0  0  0  0  0  0  0  0  0  0  0  0
    2.0691  -56.7964   -0.0000 H   0  0  0  0  0  0  0  0  0  0  0  0
    3.5453  -57.7024   -0.0003 H   0  0  0  0  0  0  0  0  0  0  0  0
  1  2  2  0  0  0  0
  2  3  1  0  0  0  0
  3  4  2  0  0  0  0
  4  5  1  0  0  0  0
  5  6  2  0  0  0  0
  6  1  1  0  0  0  0
  6  7  1  0  0  0  0
  7  8  1  0  0  0  0
  7  9  2  0  0  0  0
  2 10  1  0  0  0  0
  3 11  1  0  0  0  0
  5 12  1  0  0  0  0
  8 13  1  0  0  0  0
  8 14  1  0  0  0  0
M  END
>  <Substance ID> (722)
722

>  <Mouse_Female_Canc> (722)
ND

>  <SAL> (722)
1

>  <Rat_Male_Canc> (722)
1

>  <TD50_Rat> (722)
NP

>  <TD50_Mouse> (722)
NP

>  <Rat_Female_Canc> (722)
1

>  <Canc> (722)
1

>  <MolWeight> (722)
123.11

>  <Mouse_Male_Canc> (722)
1

>  <Mouse_Male_NTP> (722)
ND

>  <ChemName> (722)
Pyrazinamide

>  <Rat_Male_NTP> (722)
ND

>  <Reference> (722)
NTP48

>  <Formula> (722)
C5H5N3O

>  <SMILES> (722)
NC(=O)C1=NC=CN=C1

>  <Rat_Female_NTP> (722)
ND

>  <CAS> (722)
98-96-4

>  <Mouse_Female_NTP> (722)
ND

>  <Synonyms> (722)
2-carbamyl pyrazine; 2-Pyrazinecarboxamide; PZA; Rozide; Tebrazid; Tebrazio; Unipyranamide; Zinamide; Zinastat; aldinamid; Dipimide; Braccopiral; Corsazinmid; D-50; Eprazin; Isopas; Lynamide; MK 56; Pezetamid; Pharozinamide; Piraldina; Pirazinamida; Pirilene; Prazina; Pyrafat; Pyramide; Pyrazide; Pyrazine-2-carboxamide; Pyrazine carboxylamide; pyrazineamide; Pyrazinecarboxamide; Pyrazinoic acid amide.

$$$$
723
 

 16 16  0  0  0  0  0  0  0  0999 V2000
    5.2562  -68.0516   -0.0009 N   0  0  0  0  0  0  0  0  0  0  0  0
    6.5298  -68.0289   -0.0012 C   0  0  0  0  0  0  0  0  0  0  0  0
    7.2441  -66.7576   -0.0002 C   0  0  0  0  0  0  0  0  0  0  0  0
    6.5549  -65.6252   -0.0007 C   0  0  0  0  0  0  0  0  0  0  0  0
    5.1081  -65.6720    0.0001 C   0  0  0  0  0  0  0  0  0  0  0  0
    4.4919  -66.8622   -0.0009 C   0  0  0  0  0  0  0  0  0  0  0  0
    7.2152  -64.3965    0.0004 N   0  0  0  0  0  0  0  0  0  0  0  0
    8.9702  -66.7239    0.0001 Cl  0  0  0  0  0  0  0  0  0  0  0  0
    7.4201  -69.5101   -0.0011 Cl  0  0  0  0  0  0  0  0  0  0  0  0
    4.2332  -64.1791    0.0003 Cl  0  0  0  0  0  0  0  0  0  0  0  0
    3.0218  -66.9794    0.0006 C   0  0  0  0  0  0  0  0  0  0  0  0
    2.2015  -65.8593    0.0017 O   0  0  0  0  0  0  0  0  0  0  0  0
    2.5093  -68.1032    0.0009 O   0  0  0  0  0  0  0  0  0  0  0  0
    6.6890  -63.5462   -0.0000 H   0  0  0  0  0  0  0  0  0  0  0  0
    8.2147  -64.3660    0.0016 H   0  0  0  0  0  0  0  0  0  0  0  0
    1.2438  -66.1469    0.0026 H   0  0  0  0  0  0  0  0  0  0  0  0
  1  2  2  0  0  0  0
  2  3  1  0  0  0  0
  3  4  2  0  0  0  0
  4  5  1  0  0  0  0
  5  6  2  0  0  0  0
  6  1  1  0  0  0  0
  4  7  1  0  0  0  0
  3  8  1  0  0  0  0
  2  9  1  0  0  0  0
  5 10  1  0  0  0  0
  6 11  1  0  0  0  0
 11 12  1  0  0  0  0
 11 13  2  0  0  0  0
  7 14  1  0  0  0  0
  7 15  1  0  0  0  0
 12 16  1  0  0  0  0
M  END
>  <Substance ID> (723)
723

>  <Mouse_Female_Canc> (723)
1

>  <SAL> (723)
1

>  <Rat_Male_Canc> (723)
1

>  <TD50_Rat> (723)
NP

>  <TD50_Mouse> (723)
NP

>  <Rat_Female_Canc> (723)
2

>  <Canc> (723)
2

>  <MolWeight> (723)
241.46

>  <Mouse_Male_Canc> (723)
1

>  <Mouse_Male_NTP> (723)
ND

>  <ChemName> (723)
Picloram

>  <Rat_Male_NTP> (723)
ND

>  <Reference> (723)
NTP23

>  <Formula> (723)
C6H3Cl3N2O2

>  <SMILES> (723)
Clc1c(N)c(Cl)c(nc1Cl)C(=O)O

>  <Rat_Female_NTP> (723)
ND

>  <CAS> (723)
1918-02-1

>  <Mouse_Female_NTP> (723)
ND

>  <Synonyms> (723)
3,5,6-trichloro-4-aminopicolinic acid; 4-amino-3,5,6-trichloro-2-picolinic acid; 4-Amino-3,5,6-trichloro-2-pyridinecarboxylic acid; 4-Amino-3,5,6-trichloropicolinic acid; 4-amino-3,5,6-trichloropyridine-2-carboxylic acid; Access; Amdon; amdon grazon; ATCP; borolin; Grazon; Grazon 10K; Grazon P+D; Grazon PC; K-PIN; PIN; Pyridinecarboxylic acid, 4-amino-3,5,6-trichloro-; Tordon; Tordon 22K; Tordon 2K; Tordon(R).

$$$$
724
 

 43 46  0  0  0  0  0  0  0  0999 V2000
   12.4090  -78.7336    0.0805 C   0  0  0  0  0  0  0  0  0  0  0  0
   13.0063  -77.5448    0.0235 C   0  0  0  0  0  0  0  0  0  0  0  0
   12.2035  -76.3295   -0.0717 C   0  0  0  0  0  0  0  0  0  0  0  0
   10.8768  -76.4152   -0.1028 C   0  0  0  0  0  0  0  0  0  0  0  0
   10.2162  -77.7210   -0.0422 C   0  0  0  0  0  0  0  0  0  0  0  0
   10.9486  -78.8242    0.0459 C   0  0  0  0  0  0  0  0  0  0  0  0
    8.0984  -79.0909   -0.0577 C   0  0  0  0  0  0  0  0  0  0  0  0
    8.8408  -80.2106    0.0420 C   0  0  0  0  0  0  0  0  0  0  0  0
   10.3125  -80.1122    0.1053 C   0  0  0  0  0  0  0  0  0  0  0  0
    8.8200  -77.7674   -0.0804 N   0  0  0  0  0  0  0  0  0  0  0  0
    6.5568  -79.2609   -0.1563 C   0  0  0  0  0  0  0  0  0  0  0  0
    6.0174  -80.4875   -0.1060 C   0  0  0  0  0  0  0  0  0  0  0  0
    6.8755  -81.6559    0.0106 C   0  0  0  0  0  0  0  0  0  0  0  0
    8.1985  -81.5511    0.0802 C   0  0  0  0  0  0  0  0  0  0  0  0
    4.6083  -80.7140   -0.2209 O   0  0  0  0  0  0  0  0  0  0  0  0
    5.6427  -78.1362   -0.4055 C   0  0  0  0  0  0  0  0  0  0  0  0
    4.3299  -78.2849   -0.4160 C   0  0  0  0  0  0  0  0  0  0  0  0
    3.7389  -79.5677   -0.0110 C   0  0  0  0  0  0  0  0  0  0  0  0
    3.4821  -79.4414    1.5093 C   0  0  0  0  0  0  0  0  0  0  0  0
    2.3756  -79.7796   -0.6908 C   0  0  0  0  0  0  0  0  0  0  0  0
    8.9894  -82.7277    0.1912 O   0  0  0  0  0  0  0  0  0  0  0  0
    8.1801  -83.9146    0.2117 C   0  0  0  0  0  0  0  0  0  0  0  0
    8.1735  -76.4697   -0.1273 C   0  0  0  0  0  0  0  0  0  0  0  0
   11.0172  -81.1250    0.1906 O   0  0  0  0  0  0  0  0  0  0  0  0
   12.9593  -79.5659    0.1471 H   0  0  0  0  0  0  0  0  0  0  0  0
   14.0043  -77.4847    0.0458 H   0  0  0  0  0  0  0  0  0  0  0  0
   12.6496  -75.4355   -0.1133 H   0  0  0  0  0  0  0  0  0  0  0  0
   10.3266  -75.5827   -0.1681 H   0  0  0  0  0  0  0  0  0  0  0  0
    6.4580  -82.5642    0.0391 H   0  0  0  0  0  0  0  0  0  0  0  0
    6.0276  -77.2285   -0.5726 H   0  0  0  0  0  0  0  0  0  0  0  0
    3.7410  -77.5276   -0.6983 H   0  0  0  0  0  0  0  0  0  0  0  0
    2.8850  -78.6584    1.6831 H   0  0  0  0  0  0  0  0  0  0  0  0
    4.3518  -79.3088    1.9849 H   0  0  0  0  0  0  0  0  0  0  0  0
    3.0434  -80.2753    1.8442 H   0  0  0  0  0  0  0  0  0  0  0  0
    1.7961  -78.9800   -0.5331 H   0  0  0  0  0  0  0  0  0  0  0  0
    1.9343  -80.5912   -0.3079 H   0  0  0  0  0  0  0  0  0  0  0  0
    2.5087  -79.9055   -1.6739 H   0  0  0  0  0  0  0  0  0  0  0  0
    8.7691  -84.7188    0.2903 H   0  0  0  0  0  0  0  0  0  0  0  0
    7.6500  -83.9717   -0.6343 H   0  0  0  0  0  0  0  0  0  0  0  0
    7.5573  -83.8804    0.9933 H   0  0  0  0  0  0  0  0  0  0  0  0
    8.8684  -75.7506   -0.1341 H   0  0  0  0  0  0  0  0  0  0  0  0
    7.5881  -76.3592    0.6759 H   0  0  0  0  0  0  0  0  0  0  0  0
    7.6177  -76.4033   -0.9560 H   0  0  0  0  0  0  0  0  0  0  0  0
  1  2  2  0  0  0  0
  1  6  1  0  0  0  0
  2  3  1  0  0  0  0
  3  4  2  0  0  0  0
  4  5  1  0  0  0  0
  5  6  2  0  0  0  0
  7  8  2  0  0  0  0
  7 10  1  0  0  0  0
  8  9  1  0  0  0  0
  9  6  1  0  0  0  0
  5 10  1  0  0  0  0
  8 14  1  0  0  0  0
  7 11  1  0  0  0  0
 11 12  2  0  0  0  0
 12 13  1  0  0  0  0
 13 14  2  0  0  0  0
 15 12  1  0  0  0  0
 15 18  1  0  0  0  0
 11 16  1  0  0  0  0
 16 17  2  0  0  0  0
 17 18  1  0  0  0  0
 18 19  1  0  0  0  0
 18 20  1  0  0  0  0
 14 21  1  0  0  0  0
 21 22  1  0  0  0  0
 10 23  1  0  0  0  0
  9 24  2  0  0  0  0
  1 25  1  0  0  0  0
  2 26  1  0  0  0  0
  3 27  1  0  0  0  0
  4 28  1  0  0  0  0
 13 29  1  0  0  0  0
 16 30  1  0  0  0  0
 17 31  1  0  0  0  0
 19 32  1  0  0  0  0
 19 33  1  0  0  0  0
 19 34  1  0  0  0  0
 20 35  1  0  0  0  0
 20 36  1  0  0  0  0
 20 37  1  0  0  0  0
 22 38  1  0  0  0  0
 22 39  1  0  0  0  0
 22 40  1  0  0  0  0
 23 41  1  0  0  0  0
 23 42  1  0  0  0  0
 23 43  1  0  0  0  0
M  END
>  <Substance ID> (724)
724

>  <Mouse_Female_Canc> (724)
ND

>  <SAL> (724)
ND

>  <Rat_Male_Canc> (724)
3

>  <TD50_Rat> (724)
0.505

>  <TD50_Mouse> (724)
ND

>  <Rat_Female_Canc> (724)
3

>  <Canc> (724)
3

>  <MolWeight> (724)
321.38

>  <Mouse_Male_Canc> (724)
ND

>  <Mouse_Male_NTP> (724)
ND

>  <ChemName> (724)
Acronycine

>  <Rat_Male_NTP> (724)
ND

>  <Reference> (724)
NTP49

>  <Formula> (724)
C20H19NO3

>  <SMILES> (724)
CN1C2=C(C(OC)=CC3=C2C=CC(O3)(C)C)C(C4=C1C=CC=C4)=O

>  <Rat_Female_NTP> (724)
ND

>  <CAS> (724)
7008-42-6

>  <Mouse_Female_NTP> (724)
ND

>  <Synonyms> (724)
3,12-dihydro-6-methoxy-3,3,12-trimethyl-7H-pyrano(2,3-c)acridin-7-one; Acronine.

$$$$
725
 

 30 31  0  0  0  0  0  0  0  0999 V2000
   50.4867   -6.0807   -0.0025 N   0  0  0  0  0  0  0  0  0  0  0  0
   49.2182   -6.0685   -0.0025 C   0  0  0  0  0  0  0  0  0  0  0  0
   48.4471   -7.3699   -0.0012 C   0  0  0  0  0  0  0  0  0  0  0  0
   49.2140   -8.4995    0.0000 C   0  0  0  0  0  0  0  0  0  0  0  0
   50.6072   -8.3825    0.0007 N   0  0  0  0  0  0  0  0  0  0  0  0
   51.2009   -7.2635   -0.0004 C   0  0  0  0  0  0  0  0  0  0  0  0
   44.6858   -8.4765    0.0111 C   0  0  0  0  0  0  0  0  0  0  0  0
   46.0099   -8.5437    0.0079 C   0  0  0  0  0  0  0  0  0  0  0  0
   46.8650   -7.3296   -0.0019 C   0  0  0  0  0  0  0  0  0  0  0  0
   46.2275   -6.1550   -0.0115 C   0  0  0  0  0  0  0  0  0  0  0  0
   44.7561   -6.0814   -0.0115 C   0  0  0  0  0  0  0  0  0  0  0  0
   44.0296   -7.1949    0.0015 C   0  0  0  0  0  0  0  0  0  0  0  0
   42.3071   -7.1205    0.0068 Cl  0  0  0  0  0  0  0  0  0  0  0  0
   48.6930   -9.9280    0.0003 C   0  0  0  0  0  0  0  0  0  0  0  0
   49.8516  -10.9364   -0.0001 C   0  0  0  0  0  0  0  0  0  0  0  0
   52.5948   -7.2286    0.0020 N   0  0  0  0  0  0  0  0  0  0  0  0
   48.5903   -4.8167   -0.0015 N   0  0  0  0  0  0  0  0  0  0  0  0
   44.1427   -9.3161    0.0203 H   0  0  0  0  0  0  0  0  0  0  0  0
   46.4477   -9.4427    0.0121 H   0  0  0  0  0  0  0  0  0  0  0  0
   46.7602   -5.3087   -0.0189 H   0  0  0  0  0  0  0  0  0  0  0  0
   44.3019   -5.1906   -0.0212 H   0  0  0  0  0  0  0  0  0  0  0  0
   48.1345  -10.0721    0.8171 H   0  0  0  0  0  0  0  0  0  0  0  0
   48.1339  -10.0722   -0.8162 H   0  0  0  0  0  0  0  0  0  0  0  0
   49.4846  -11.8666    0.0000 H   0  0  0  0  0  0  0  0  0  0  0  0
   50.4131  -10.8000    0.8161 H   0  0  0  0  0  0  0  0  0  0  0  0
   50.4125  -10.8001   -0.8167 H   0  0  0  0  0  0  0  0  0  0  0  0
   53.0730   -6.3503    0.0012 H   0  0  0  0  0  0  0  0  0  0  0  0
   53.1164   -8.0818    0.0046 H   0  0  0  0  0  0  0  0  0  0  0  0
   47.5920   -4.7581   -0.0015 H   0  0  0  0  0  0  0  0  0  0  0  0
   49.1402   -3.9815   -0.0010 H   0  0  0  0  0  0  0  0  0  0  0  0
  1  2  2  0  0  0  0
  2  3  1  0  0  0  0
  3  4  2  0  0  0  0
  4  5  1  0  0  0  0
  5  6  2  0  0  0  0
  6  1  1  0  0  0  0
  7  8  2  0  0  0  0
  8  9  1  0  0  0  0
  9 10  2  0  0  0  0
 10 11  1  0  0  0  0
 11 12  2  0  0  0  0
 12  7  1  0  0  0  0
 12 13  1  0  0  0  0
  9  3  1  0  0  0  0
  4 14  1  0  0  0  0
 14 15  1  0  0  0  0
  6 16  1  0  0  0  0
  2 17  1  0  0  0  0
  7 18  1  0  0  0  0
  8 19  1  0  0  0  0
 10 20  1  0  0  0  0
 11 21  1  0  0  0  0
 14 22  1  0  0  0  0
 14 23  1  0  0  0  0
 15 24  1  0  0  0  0
 15 25  1  0  0  0  0
 15 26  1  0  0  0  0
 16 27  1  0  0  0  0
 16 28  1  0  0  0  0
 17 29  1  0  0  0  0
 17 30  1  0  0  0  0
M  END
>  <Substance ID> (725)
725

>  <Mouse_Female_Canc> (725)
1

>  <SAL> (725)
1

>  <Rat_Male_Canc> (725)
1

>  <TD50_Rat> (725)
NP

>  <TD50_Mouse> (725)
NP

>  <Rat_Female_Canc> (725)
1

>  <Canc> (725)
1

>  <MolWeight> (725)
248.71

>  <Mouse_Male_Canc> (725)
ND

>  <Mouse_Male_NTP> (725)
ND

>  <ChemName> (725)
Pyrimethamine

>  <Rat_Male_NTP> (725)
ND

>  <Reference> (725)
NTP77

>  <Formula> (725)
C12H13ClN4

>  <SMILES> (725)
NC1=C(C(=NC(=N1)N)CC)C2=CC=C(C=C2)Cl

>  <Rat_Female_NTP> (725)
ND

>  <CAS> (725)
58-14-0

>  <Mouse_Female_NTP> (725)
ND

>  <Synonyms> (725)
2,4-Diamino-5-(p-chlorophenyl)-6-ethylpyrimidine; 4753 r.p.; 5-(4-chlorophenyl)-2,4-diamino-6-ethylpyrimidine; 5-(p-chlorophenyl)-6-ethyl-2,4-diaminopyrimidine; 5-(4-Chlorophenyl)-6-ethyl-2,4-pyrimidinediamine; diaminopyritamin; bw 50-63; CD; chloridine; chloridyn; darachlor; daraclor; Darapram; daraprime; Daraprin; erbaprelina; Fansidar; Fansidar (Pyrimethamine/Sulfadoxine); khloridin; malacid; malocid; maloprim; pirimetamin; pirimecidan; rp 4753; Tindurin; wr 2978.

$$$$
726
 

 25 26  0  0  0  0  0  0  0  0999 V2000
   45.4046  -20.1275   -0.0010 C   0  0  0  0  0  0  0  0  0  0  0  0
   45.2973  -21.5650   -0.0150 C   0  0  0  0  0  0  0  0  0  0  0  0
   47.8206  -20.3626    0.0019 C   0  0  0  0  0  0  0  0  0  0  0  0
   46.6004  -19.5402    0.0052 C   0  0  0  0  0  0  0  0  0  0  0  0
   47.7400  -21.6957   -0.0056 C   0  0  0  0  0  0  0  0  0  0  0  0
   46.3955  -22.3027   -0.0143 C   0  0  0  0  0  0  0  0  0  0  0  0
   48.9915  -22.4514   -0.0024 O   0  0  0  0  0  0  0  0  0  0  0  0
   49.0515  -23.9207   -0.0031 C   0  0  0  0  0  0  0  0  0  0  0  0
   47.8727  -24.8169   -0.0092 C   0  0  0  0  0  0  0  0  0  0  0  0
   47.9993  -26.1369   -0.0064 C   0  0  0  0  0  0  0  0  0  0  0  0
   49.3150  -26.7328    0.0033 C   0  0  0  0  0  0  0  0  0  0  0  0
   50.3964  -25.9555    0.0077 C   0  0  0  0  0  0  0  0  0  0  0  0
   50.2598  -24.4890    0.0041 C   0  0  0  0  0  0  0  0  0  0  0  0
   49.4708  -28.4508    0.0098 Cl  0  0  0  0  0  0  0  0  0  0  0  0
   51.6763  -23.4999    0.0110 Cl  0  0  0  0  0  0  0  0  0  0  0  0
   44.2443  -19.3805    0.0038 N   0  3  0  0  0  0  0  0  0  0  0  0
   44.3001  -18.0657    0.0070 O   0  5  0  0  0  0  0  0  0  0  0  0
   43.2057  -19.9315    0.0029 O   0  0  0  0  0  0  0  0  0  0  0  0
   44.3979  -22.0021   -0.0252 H   0  0  0  0  0  0  0  0  0  0  0  0
   48.7172  -19.9198    0.0052 H   0  0  0  0  0  0  0  0  0  0  0  0
   46.6686  -18.5426    0.0122 H   0  0  0  0  0  0  0  0  0  0  0  0
   46.3120  -23.2992   -0.0198 H   0  0  0  0  0  0  0  0  0  0  0  0
   46.9566  -24.4160   -0.0157 H   0  0  0  0  0  0  0  0  0  0  0  0
   47.1858  -26.7184   -0.0110 H   0  0  0  0  0  0  0  0  0  0  0  0
   51.3064  -26.3700    0.0135 H   0  0  0  0  0  0  0  0  0  0  0  0
  1  2  1  0  0  0  0
  1  4  2  0  0  0  0
  2  6  2  0  0  0  0
  5  3  2  0  0  0  0
  3  4  1  0  0  0  0
  5  6  1  0  0  0  0
  5  7  1  0  0  0  0
  7  8  1  0  0  0  0
  8  9  1  0  0  0  0
  8 13  2  0  0  0  0
  9 10  2  0  0  0  0
 10 11  1  0  0  0  0
 11 12  2  0  0  0  0
 12 13  1  0  0  0  0
 11 14  1  0  0  0  0
 13 15  1  0  0  0  0
  1 16  1  0  0  0  0
 16 17  1  0  0  0  0
 16 18  2  0  0  0  0
  2 19  1  0  0  0  0
  3 20  1  0  0  0  0
  4 21  1  0  0  0  0
  6 22  1  0  0  0  0
  9 23  1  0  0  0  0
 10 24  1  0  0  0  0
 12 25  1  0  0  0  0
M  END
>  <Substance ID> (726)
726

>  <Mouse_Female_Canc> (726)
3

>  <SAL> (726)
3

>  <Rat_Male_Canc> (726)
1

>  <TD50_Rat> (726)
420

>  <TD50_Mouse> (726)
115

>  <Rat_Female_Canc> (726)
3

>  <Canc> (726)
3

>  <MolWeight> (726)
284.10

>  <Mouse_Male_Canc> (726)
3

>  <Mouse_Male_NTP> (726)
ND

>  <ChemName> (726)
Nitrofen

>  <Rat_Male_NTP> (726)
ND

>  <Reference> (726)
CPDB & NTP184

>  <Formula> (726)
C12H7Cl2NO3

>  <SMILES> (726)
ClC1=C(C=CC(=C1)Cl)OC2=CC=C(C=C2)[N+](=O)[O-]

>  <Rat_Female_NTP> (726)
ND

>  <CAS> (726)
1836-75-5

>  <Mouse_Female_NTP> (726)
ND

>  <Synonyms> (726)
2,4-Dichloro-1-(4-nitrophenoxy)benzene; 2',4'-dichloro-4-nitrodiphenyl ether; 2,4-dichloro-4'-nitrodiphenyl ether; 2,4-Dichlorophenyl p-nitrophenyl ether; 4-(2,4-dichlorophenoxy)nitrobenzene; 4'-nitro-2,4-dichlorodiphenyl ether; FW 925; mezotox; niclofen; NIP; nitofen; nitrafen; nitraphen; Nitrochlor; nitrophen; preparation 125; TOK; TOK-2; TOK E; tok e-25; tok e 40; tokkorn; tok wp-50; trizilin.

$$$$
727
 

 28 29  0  0  0  0  0  0  0  0999 V2000
   19.7643  -13.5399   -2.7485 Cl  0  0  0  0  0  0  0  0  0  1  0  0
   18.4953  -14.0249   -1.6326 C   0  0  2  0  0  0  0  0  0  2  0  0
   18.0334  -12.7971   -0.7717 C   0  0  2  0  0  0  0  0  0  3  0  0
   18.7915  -11.3317   -1.3933 Cl  0  0  0  0  0  0  0  0  0  4  0  0
   18.3898  -13.2185    0.6996 C   0  0  1  0  0  0  0  0  0  5  0  0
   17.2980  -14.2944    1.0238 C   0  0  0  0  0  0  0  0  0  6  0  0
   19.0076  -15.0321   -0.5393 C   0  0  2  0  0  0  0  0  0  7  0  0
   17.7418  -15.5396    0.2506 C   0  0  0  0  0  0  0  0  0  8  0  0
   16.5281  -16.1915   -0.8549 Cl  0  0  0  0  0  0  0  0  0  9  0  0
   18.0432  -16.8065    1.4694 Cl  0  0  0  0  0  0  0  0  0 10  0  0
   19.7439  -14.0891    0.5803 C   0  0  1  0  0  0  0  0  0 11  0  0
   20.1501  -14.7515    1.9284 C   0  0  0  0  0  0  0  0  0 12  0  0
   21.5567  -15.7984    1.7251 Cl  0  0  0  0  0  0  0  0  0 13  0  0
   20.5778  -13.4801    3.0768 Cl  0  0  0  0  0  0  0  0  0 14  0  0
   21.1274  -13.3144    0.2655 C   0  0  0  0  0  0  0  0  0 15  0  0
   21.3947  -12.1980   -1.0687 Cl  0  0  0  0  0  0  0  0  0 16  0  0
   19.7360  -16.2186   -1.2639 C   0  0  0  0  0  0  0  0  0 17  0  0
   20.3035  -17.5165   -0.2097 Cl  0  0  0  0  0  0  0  0  0 18  0  0
   17.7813  -14.4209   -2.2100 H   0  0  0  0  0  0  0  0  0  0  0  0
   17.0597  -12.5723   -0.8075 H   0  0  0  0  0  0  0  0  0  0  0  0
   18.4574  -12.4541    1.3407 H   0  0  0  0  0  0  0  0  0  0  0  0
   17.2669  -14.4811    2.0057 H   0  0  0  0  0  0  0  0  0  0  0  0
   16.3979  -13.9885    0.7136 H   0  0  0  0  0  0  0  0  0  0  0  0
   19.3799  -15.2986    2.2563 H   0  0  0  0  0  0  0  0  0  0  0  0
   21.3308  -12.7907    1.0927 H   0  0  0  0  0  0  0  0  0  0  0  0
   21.8121  -14.0338    0.1489 H   0  0  0  0  0  0  0  0  0  0  0  0
   19.0981  -16.6146   -1.9244 H   0  0  0  0  0  0  0  0  0  0  0  0
   20.5279  -15.8453   -1.7471 H   0  0  0  0  0  0  0  0  0  0  0  0
  1  2  1  0  0  0  0
  2  3  1  0  0  0  0
  2  7  1  0  0  0  0
  3  4  1  0  0  0  0
  3  5  1  0  0  0  0
  5  6  1  0  0  0  0
  5 11  1  0  0  0  0
  6  8  1  0  0  0  0
  7  8  1  0  0  0  0
  7 11  1  0  0  0  0
  7 17  1  0  0  0  0
  8  9  1  0  0  0  0
  8 10  1  0  0  0  0
 11 12  1  0  0  0  0
 11 15  1  0  0  0  0
 12 13  1  0  0  0  0
 12 14  1  0  0  0  0
 15 16  1  0  0  0  0
 17 18  1  0  0  0  0
  2 19  1  0  0  0  0
  3 20  1  0  0  0  0
  5 21  1  0  0  0  0
  6 22  1  0  0  0  0
  6 23  1  0  0  0  0
 12 24  1  0  0  0  0
 15 25  1  0  0  0  0
 15 26  1  0  0  0  0
 17 27  1  0  0  0  0
 17 28  1  0  0  0  0
M  END
>  <Substance ID> (727)
727

>  <Mouse_Female_Canc> (727)
3

>  <SAL> (727)
3

>  <Rat_Male_Canc> (727)
2

>  <TD50_Rat> (727)
NP

>  <TD50_Mouse> (727)
5.57

>  <Rat_Female_Canc> (727)
2

>  <Canc> (727)
3

>  <MolWeight> (727)
413.81

>  <Mouse_Male_Canc> (727)
3

>  <Mouse_Male_NTP> (727)
ND

>  <ChemName> (727)
Toxaphene

>  <Rat_Male_NTP> (727)
ND

>  <Reference> (727)
NTP37

>  <Formula> (727)
C10H10Cl8

>  <SMILES> (727)
ClC2(Cl)CC1C(C2(C(Cl)C1Cl)CCl)(C(Cl)Cl)CCl

>  <Rat_Female_NTP> (727)
ND

>  <CAS> (727)
8001-35-2

>  <Mouse_Female_NTP> (727)
ND

>  <Synonyms> (727)
M 5055; Agricide; agricide maggot killer (f); alltex; Alltox; attac 4-2; attac 4-4; attac 6; attac 6-3; attac 8; camphechlor; Campheclor; Camphene, chlorinated; camphochlor; camphoclor; camphofene huileux; chem-phene; Chlorocamphene; Chlorinated Camphene; Chlorinated Camphenes; CHLORINATED CAMPHENE (TOXAPHENE) (CAMPHECHOR); chlorinated champhene; clor chem t-590; compound 3956; Coopertox; crestoxo; cristoxo; cristoxo 90; estonox; fasco-terpene; Geniphene; gy-phene; Hercules 3956; hercules toxaphene; kamfochlor; melipax; Motox; octachlorocamphene; Penphene; phenacide; Phenatox; polychlorocamphene; Polychlorinated camphenes; Polychorinated camphenes; Strobane-T; strobane t-90; toxadust; toxakil; toxon 63; toxyphen; vertac toxaphene 90.

$$$$
728
 

 27 32  0  0  0  0  0  0  0  0999 V2000
   -0.7084   -1.0605   -0.8272 C   0  0  2  0  0  0  0  0  0  1  0  0
   -1.4300   -1.5714    0.4264 C   0  0  1  0  0  0  0  0  0  2  0  0
   -1.6622   -0.1759    1.0486 C   0  0  1  0  0  0  0  0  0  3  0  0
    0.9238   -0.4779    1.0992 C   0  0  2  0  0  0  0  0  0  4  0  0
    2.2559    0.2578    1.2149 C   0  0  2  0  0  0  0  0  0  5  0  0
    2.4681    0.8620   -0.1109 C   0  0  2  0  0  0  0  0  0  6  0  0
    1.2340    0.4522   -0.8933 C   0  0  1  0  0  0  0  0  0  7  0  0
    3.3354   -0.1798    0.3716 O   0  0  0  0  0  0  0  0  0  8  0  0
   -1.4417    1.0477   -2.6810 Cl  0  0  0  0  0  0  0  0  0  9  0  0
   -2.4484   -0.2635    2.6708 Cl  0  0  0  0  0  0  0  0  0 10  0  0
   -2.8716   -2.6365    0.1964 Cl  0  0  0  0  0  0  0  0  0 11  0  0
   -0.8324   -2.1198   -2.2856 Cl  0  0  0  0  0  0  0  0  0 12  0  0
    0.7743   -0.9211   -0.3885 C   0  0  1  0  0  0  0  0  0 13  0  0
   -3.9544    0.0955   -0.6224 Cl  0  0  0  0  0  0  0  0  0 14  0  0
   -2.5844    2.3893    0.4622 Cl  0  0  0  0  0  0  0  0  0 15  0  0
   -0.0384    1.1033   -0.3243 C   0  0  2  0  0  0  0  0  0 16  0  0
   -0.2569    0.5129    1.1088 C   0  0  2  0  0  0  0  0  0 17  0  0
   -1.2237    0.4106   -1.0029 C   0  0  1  0  0  0  0  0  0 18  0  0
   -2.3772    0.6735   -0.0212 C   0  0  0  0  0  0  0  0  0 19  0  0
   -0.7922   -2.2347    1.0412 H   0  0  0  0  0  0  0  0  0 20  0  0
    0.8741   -1.2824    1.8624 H   0  0  0  0  0  0  0  0  0 21  0  0
    2.5960    0.7111    2.1465 H   0  0  0  0  0  0  0  0  0 22  0  0
    2.9789    1.8116   -0.2693 H   0  0  0  0  0  0  0  0  0 23  0  0
    1.3651    0.5110   -1.9937 H   0  0  0  0  0  0  0  0  0 24  0  0
    1.4323   -1.7776   -0.6503 H   0  0  0  0  0  0  0  0  0 25  0  0
   -0.0120    2.2124   -0.3791 H   0  0  0  0  0  0  0  0  0 26  0  0
   -0.1663    1.2871    1.9028 H   0  0  0  0  0  0  0  0  0 27  0  0
  1  2  1  1  0  0  0
  1 12  1  6  0  0  0
  1 13  1  0  0  0  0
  1 18  1  0  0  0  0
  2  3  1  0  0  0  0
  2 11  1  0  0  0  0
  2 20  1  1  0  0  0
  3 10  1  1  0  0  0
  3 17  1  0  0  0  0
  3 19  1  6  0  0  0
  4  5  1  0  0  0  0
  4 13  1  6  0  0  0
  4 17  1  0  0  0  0
  4 21  1  1  0  0  0
  5  6  1  6  0  0  0
  5  8  1  6  0  0  0
  5 22  1  1  0  0  0
  6  7  1  6  0  0  0
  6  8  1  0  0  0  0
  6 23  1  0  0  0  0
  7 13  1  0  0  0  0
  7 16  1  0  0  0  0
  7 24  1  6  0  0  0
  9 18  1  1  0  0  0
 13 25  1  0  0  0  0
 14 19  1  0  0  0  0
 15 19  1  0  0  0  0
 16 17  1  1  0  0  0
 16 18  1  0  0  0  0
 16 26  1  0  0  0  0
 17 27  1  1  0  0  0
 18 19  1  1  0  0  0
M  END
>  <Substance ID> (728)
728

>  <Mouse_Female_Canc> (728)
1

>  <SAL> (728)
3

>  <Rat_Male_Canc> (728)
1

>  <TD50_Rat> (728)
NP

>  <TD50_Mouse> (728)
NP

>  <Rat_Female_Canc> (728)
1

>  <Canc> (728)
1

>  <MolWeight> (728)
380.91

>  <Mouse_Male_Canc> (728)
1

>  <Mouse_Male_NTP> (728)
ND

>  <ChemName> (728)
Photodieldrin

>  <Rat_Male_NTP> (728)
ND

>  <Reference> (728)
NTP17

>  <Formula> (728)
C12H8Cl6O

>  <SMILES> (728)
Cl[C@H]3[C@@]1(Cl)[C@]4(Cl)[C@@H]2[C@@H]5C1[C@H]([C@@H]2[C@@]3(Cl)C4(Cl)Cl)[C@H]6O[C@@H]56

>  <Rat_Female_NTP> (728)
ND

>  <CAS> (728)
13366-73-9

>  <Mouse_Female_NTP> (728)
ND

>  <Synonyms> (728)
1,1,2,3,3a,7a-hexachloro-5,6-epoxydecahydro-2,4,7-metheno-1H-cyclopenta(a)pentalene, stereoisomer; 2,4,6-metheno-2H-cyclopenta(4,5)pentaleno(1,2-b)oxirene, 2a,3,3,4,5,5a-hexachlorodecahydro-; 2a,3,3,4,5,5a-hexachlorodecahydro-2,4,6-metheno-2H-cyclopenta(4,5)pentaleno(1,2-b)oxirene,(1aA,1bB,2A,2aB,4B,5B,5aB,5bB,6A,6aA)-; bl 6623.

$$$$
729
 

 7  6  0  0  0  0  0  0  0  0999 V2000
   46.6062  -37.3651   -0.1155 C   0  0  0  0  0  0  0  0  0  0  0  0
   46.9165  -38.1885    1.4165 Cl  0  0  0  0  0  0  0  0  0  0  0  0
   46.1464  -36.0348    0.1648 N   0  3  0  0  0  0  0  0  0  0  0  0
   46.9215  -35.1785    0.3827 O   0  0  0  0  0  0  0  0  0  0  0  0
   44.8482  -35.7709    0.1782 O   0  5  0  0  0  0  0  0  0  0  0  0
   45.3697  -38.2588   -1.0063 Cl  0  0  0  0  0  0  0  0  0  0  0  0
   48.1206  -37.2950   -1.0213 Cl  0  0  0  0  0  0  0  0  0  0  0  0
  1  2  1  1  0  0  0
  3  4  2  0  0  0  0
  3  5  1  0  0  0  0
  3  1  1  0  0  0  0
  1  6  1  0  0  0  0
  1  7  1  6  0  0  0
M  END
>  <Substance ID> (729)
729

>  <Mouse_Female_Canc> (729)
1

>  <SAL> (729)
3

>  <Rat_Male_Canc> (729)
ND

>  <TD50_Rat> (729)
ND

>  <TD50_Mouse> (729)
NP

>  <Rat_Female_Canc> (729)
ND

>  <Canc> (729)
1

>  <MolWeight> (729)
164.38

>  <Mouse_Male_Canc> (729)
1

>  <Mouse_Male_NTP> (729)
ND

>  <ChemName> (729)
Chloropicrin

>  <Rat_Male_NTP> (729)
ND

>  <Reference> (729)
NTP65

>  <Formula> (729)
CCl3NO2

>  <SMILES> (729)
ClC([N+](=O)[O-])(Cl)Cl

>  <Rat_Female_NTP> (729)
ND

>  <CAS> (729)
76-06-2

>  <Mouse_Female_NTP> (729)
ND

>  <Synonyms> (729)
Aquinite; Chlor-O-Pic; Chloropicrin, absorbed; Dojyopicrin; Dolochlor; G 25; Larvacide; larvacide 100; microlysin; Nimax; Nitrochloroform; Nitrotrichloromethane; Pic-Chlor; Pic-Clor; Picfume; picride; Profume A; S 1; Timberfume; trichloronitromethane; Tri-Clor; Tri-Con.

$$$$
730


 32 34  0  0  0  0  0  0  0  0999 V2000
   25.0618  -32.3779   -0.6050 C   0  0  2  0  0  0  0  0  0  0  0  0
   25.6473  -32.4334    0.8095 C   0  0  2  0  0  0  0  0  0  0  0  0
   26.1557  -31.8827   -1.4346 O   0  0  0  0  0  0  0  0  0  0  0  0
   26.8826  -33.1889    0.4368 C   0  0  0  0  0  0  0  0  0  0  0  0
   27.3870  -32.2252   -0.7031 C   0  0  1  0  0  0  0  0  0  0  0  0
   23.8019  -31.4951   -0.7347 C   0  0  0  0  0  0  0  0  0  0  0  0
   24.8461  -33.4124   -0.9037 H   0  0  0  0  0  0  0  0  0  0  0  0
   28.1636  -32.7180   -1.3086 H   0  0  0  0  0  0  0  0  0  0  0  0
   27.5091  -33.2573    1.2132 H   0  0  0  0  0  0  0  0  0  0  0  0
   26.6567  -34.1061    0.1085 H   0  0  0  0  0  0  0  0  0  0  0  0
   24.7981  -33.0853    1.7581 O   0  0  0  0  0  0  0  0  0  0  0  0
   25.9115  -31.4427    1.1606 H   0  0  0  0  0  0  0  0  0  0  0  0
   22.7667  -31.9670    0.1135 O   0  0  0  0  0  0  0  0  0  0  0  0
   27.9431  -30.9323   -0.2137 N   0  0  0  0  0  0  0  0  0  0  0  0
   29.2708  -30.6448   -0.0626 C   0  0  0  0  0  0  0  0  0  0  0  0
   29.3586  -29.3724    0.2344 C   0  0  0  0  0  0  0  0  0  0  0  0
   28.0947  -28.7909    0.3072 N   0  0  0  0  0  0  0  0  0  0  0  0
   27.2366  -29.7003    0.0313 C   0  0  0  0  0  0  0  0  0  0  0  0
   30.3871  -31.4650   -0.2158 N   0  0  0  0  0  0  0  0  0  0  0  0
   30.6155  -28.7527    0.4140 C   0  0  0  0  0  0  0  0  0  0  0  0
   30.7339  -27.2254    0.7404 S   0  0  0  0  0  0  0  0  0  0  0  0
   32.6845  -31.7666   -0.2216 N   0  0  0  0  0  0  0  0  0  0  0  0
   31.7355  -29.5675    0.2598 N   0  0  0  0  0  0  0  0  0  0  0  0
   31.5593  -30.9578   -0.0648 C   0  0  0  0  0  0  0  0  0  0  0  0
   24.0321  -30.5559   -0.4796 H   0  0  0  0  0  0  0  0  0  0  0  0
   23.4838  -31.5151   -1.6825 H   0  0  0  0  0  0  0  0  0  0  0  0
   25.2390  -33.0862    2.6556 H   0  0  0  0  0  0  0  0  0  0  0  0
   21.9615  -31.3824    0.0144 H   0  0  0  0  0  0  0  0  0  0  0  0
   26.2451  -29.5767   -0.0075 H   0  0  0  0  0  0  0  0  0  0  0  0
   33.5990  -31.3790   -0.1058 H   0  0  0  0  0  0  0  0  0  0  0  0
   32.5768  -32.7342   -0.4499 H   0  0  0  0  0  0  0  0  0  0  0  0
   32.6540  -29.1889    0.3739 H   0  0  0  0  0  0  0  0  0  0  0  0
  1  2  1  1  0  0  0
  1  3  1  0  0  0  0
  2  4  1  0  0  0  0
  3  5  1  0  0  0  0
  5  4  1  1  0  0  0
  1  6  1  0  0  0  0
  1  7  1  0  0  0  0
  5 14  1  0  0  0  0
  5  8  1  0  0  0  0
  4  9  1  0  0  0  0
  4 10  1  0  0  0  0
  2 11  1  0  0  0  0
  2 12  1  0  0  0  0
  6 13  1  0  0  0  0
 14 15  1  0  0  0  0
 15 16  2  0  0  0  0
 16 17  1  0  0  0  0
 17 18  2  0  0  0  0
 18 14  1  0  0  0  0
 16 20  1  0  0  0  0
 15 19  1  0  0  0  0
 19 24  2  0  0  0  0
 20 21  2  0  0  0  0
 24 22  1  0  0  0  0
 20 23  1  0  0  0  0
 23 24  1  0  0  0  0
  6 25  1  0  0  0  0
  6 26  1  0  0  0  0
 11 27  1  0  0  0  0
 13 28  1  0  0  0  0
 18 29  1  0  0  0  0
 22 30  1  0  0  0  0
 22 31  1  0  0  0  0
 23 32  1  0  0  0  0
M  END
>  <Substance ID> (730)
730

>  <Mouse_Female_Canc> (730)
ND

>  <SAL> (730)
ND

>  <Rat_Male_Canc> (730)
2

>  <TD50_Rat> (730)
ND

>  <TD50_Mouse> (730)
ND

>  <Rat_Female_Canc> (730)
3

>  <Canc> (730)
3

>  <MolWeight> (730)
283.31

>  <Mouse_Male_Canc> (730)
ND

>  <Mouse_Male_NTP> (730)
ND

>  <ChemName> (730)
beta-2'-Deoxythioguanosine

>  <Rat_Male_NTP> (730)
ND

>  <Reference> (730)
NTP57

>  <Formula> (730)
C10H13N5O3S 

>  <SMILES> (730)
S=C1c2ncn(c2\N=C(\N)N1)[C@@H]3O[C@@H](C(O)C3)CO

>  <Rat_Female_NTP> (730)
ND

>  <CAS> (730)
789-61-7

>  <Mouse_Female_NTP> (730)
ND

>  <Synonyms> (730)
2'-Desoxy-6-thioguanosine; 2'-Deoxythioguanosine; 6H-Purine-6-thione, 2-amino-9-(2-deoxy-beta-D-erythro-pentofuranosyl)-1,9-dihydro-; 6-Mercaptoguaninedeoxyriboside; 9H-Purine-6(1H)-thione, 2-amino-9-(2-deoxy-beta-D-erythro-pentofuranosyl)-; beta-2'-Deoxy-6-thioguanosine; beta-2'-Deoxythiol guanosine; BTG; beta-TGdR; Thioguanine 9betaD-2'-deoxyriboside; Thioguanine deoxyriboside.

$$$$
731
 

102107  0  0  0  0  0  0  0  0999 V2000
   55.2416  -70.1633   -0.3539 C   0  0  0  0  0  0  0  0  0  0  0  0
   56.5713  -70.0176   -0.3945 C   0  0  0  0  0  0  0  0  0  0  0  0
   57.2134  -68.7333    0.0004 C   0  0  0  0  0  0  0  0  0  0  0  0
   56.4165  -67.7347    0.3860 C   0  0  0  0  0  0  0  0  0  0  0  0
   54.9613  -67.8912    0.4131 C   0  0  0  0  0  0  0  0  0  0  0  0
   54.3847  -69.0410    0.0682 C   0  0  0  0  0  0  0  0  0  0  0  0
   50.7653  -70.5764    0.1803 O   0  0  0  0  0  0  0  0  0  0  0  0
   50.1813  -71.8867   -0.0619 C   0  0  2  0  0  0  0  0  0  0  0  0
   48.7690  -73.5408   -1.0933 H   0  0  0  0  0  0  0  0  0  0  0  0
   48.5602  -73.4793   -0.0166 C   0  0  2  0  0  0  0  0  0  0  0  0
   47.1638  -74.0543    0.2922 C   0  0  1  0  0  0  0  0  0  0  0  0
   46.9651  -73.9784    1.3685 H   0  0  0  0  0  0  0  0  0  0  0  0
   46.3410  -73.3345   -1.5678 H   0  0  0  0  0  0  0  0  0  0  0  0
   46.1119  -73.2461   -0.4977 C   0  0  1  0  0  0  0  0  0  0  0  0
   48.6936  -72.0324    0.3527 C   0  0  2  0  0  0  0  0  0  0  0  0
   48.5081  -71.7740    1.8779 C   0  0  0  0  0  0  0  0  0  0  0  0
   49.7098  -74.1512    0.7751 C   0  0  0  0  0  0  0  0  0  0  0  0
   50.8115  -73.0244    0.7998 C   0  0  0  0  0  0  0  0  0  0  0  0
   46.2064  -71.7151   -0.1196 C   0  0  0  0  0  0  0  0  0  0  0  0
   47.6665  -71.1971   -0.4535 C   0  0  0  0  0  0  0  0  0  0  0  0
   42.2686  -73.5113   -0.3234 C   0  0  0  0  0  0  0  0  0  0  0  0
   42.1108  -74.9324    0.0652 C   0  0  0  0  0  0  0  0  0  0  0  0
   43.2021  -75.6611    0.2557 C   0  0  0  0  0  0  0  0  0  0  0  0
   43.4951  -72.9944   -0.4843 C   0  0  0  0  0  0  0  0  0  0  0  0
   31.8190  -74.1861   -0.5386 C   0  0  0  0  0  0  0  0  0  0  0  0
   31.4016  -75.0730    0.6703 C   0  0  0  0  0  0  0  0  0  0  0  0
   33.0466  -73.3364   -0.3202 N   0  0  0  0  0  0  0  0  0  0  0  0
   30.0229  -76.0769    0.1923 Cl  0  0  0  0  0  0  0  0  0  0  0  0
   32.9153  -71.8641   -0.5703 C   0  0  0  0  0  0  0  0  0  0  0  0
   33.2804  -70.9802    0.6557 C   0  0  0  0  0  0  0  0  0  0  0  0
   33.2392  -69.2801    0.1687 Cl  0  0  0  0  0  0  0  0  0  0  0  0
   34.4027  -73.9495   -0.1488 C   0  0  0  0  0  0  0  0  0  0  0  0
   34.5565  -75.2720   -0.0607 C   0  0  0  0  0  0  0  0  0  0  0  0
   35.8900  -75.8647    0.0731 C   0  0  0  0  0  0  0  0  0  0  0  0
   36.9801  -75.0980    0.0948 C   0  0  0  0  0  0  0  0  0  0  0  0
   36.8288  -73.6471   -0.0017 C   0  0  0  0  0  0  0  0  0  0  0  0
   35.6169  -73.1051   -0.1137 C   0  0  0  0  0  0  0  0  0  0  0  0
   38.3435  -75.7821    0.2284 C   0  0  0  0  0  0  0  0  0  0  0  0
   39.6136  -74.9299    0.0526 C   0  0  0  0  0  0  0  0  0  0  0  0
   40.8517  -75.6061    0.2421 O   0  0  0  0  0  0  0  0  0  0  0  0
   39.5565  -73.7350   -0.2572 O   0  0  0  0  0  0  0  0  0  0  0  0
   44.7050  -73.8276   -0.2795 C   0  0  0  0  0  0  0  0  0  0  0  0
   44.5458  -75.1181    0.0792 C   0  0  0  0  0  0  0  0  0  0  0  0
   45.7152  -76.0548    0.3218 C   0  0  0  0  0  0  0  0  0  0  0  0
   47.0743  -75.5009   -0.1323 C   0  0  0  0  0  0  0  0  0  0  0  0
   52.1597  -70.4638   -0.1359 C   0  0  0  0  0  0  0  0  0  0  0  0
   52.7858  -71.4193   -0.6095 O   0  0  0  0  0  0  0  0  0  0  0  0
   52.8439  -69.1205    0.1490 C   0  0  0  0  0  0  0  0  0  0  0  0
   58.6800  -68.5563   -0.0236 N   0  0  0  0  0  0  0  0  0  0  0  0
   59.3119  -67.2818    0.3949 C   0  0  0  0  0  0  0  0  0  0  0  0
   59.0174  -66.0696   -0.5533 C   0  0  0  0  0  0  0  0  0  0  0  0
   59.7997  -64.6107    0.0808 Cl  0  0  0  0  0  0  0  0  0  0  0  0
   59.5749  -69.6427   -0.4514 C   0  0  0  0  0  0  0  0  0  0  0  0
   59.6023  -70.8512    0.5348 C   0  0  0  0  0  0  0  0  0  0  0  0
   60.7039  -72.0942   -0.0809 Cl  0  0  0  0  0  0  0  0  0  0  0  0
   54.8280  -71.0368   -0.6108 H   0  0  0  0  0  0  0  0  0  0  0  0
   57.1419  -70.7821   -0.6944 H   0  0  0  0  0  0  0  0  0  0  0  0
   56.8212  -66.8628    0.6616 H   0  0  0  0  0  0  0  0  0  0  0  0
   54.3898  -67.1208    0.6957 H   0  0  0  0  0  0  0  0  0  0  0  0
   50.3349  -71.9642   -1.0470 H   0  0  0  0  0  0  0  0  0  0  0  0
   47.5427  -71.8739    2.1184 H   0  0  0  0  0  0  0  0  0  0  0  0
   48.8120  -70.8472    2.0988 H   0  0  0  0  0  0  0  0  0  0  0  0
   49.0505  -72.4348    2.3968 H   0  0  0  0  0  0  0  0  0  0  0  0
   49.4183  -74.3918    1.7009 H   0  0  0  0  0  0  0  0  0  0  0  0
   50.0410  -74.9699    0.3061 H   0  0  0  0  0  0  0  0  0  0  0  0
   50.9835  -72.7124    1.7342 H   0  0  0  0  0  0  0  0  0  0  0  0
   51.6655  -73.3498    0.3940 H   0  0  0  0  0  0  0  0  0  0  0  0
   45.5361  -71.1959   -0.6498 H   0  0  0  0  0  0  0  0  0  0  0  0
   46.0231  -71.5979    0.8564 H   0  0  0  0  0  0  0  0  0  0  0  0
   47.8438  -71.3013   -1.4321 H   0  0  0  0  0  0  0  0  0  0  0  0
   47.7463  -70.2328   -0.2006 H   0  0  0  0  0  0  0  0  0  0  0  0
   41.4613  -72.9385   -0.4654 H   0  0  0  0  0  0  0  0  0  0  0  0
   43.1011  -76.6174    0.5302 H   0  0  0  0  0  0  0  0  0  0  0  0
   43.5956  -72.0344   -0.7458 H   0  0  0  0  0  0  0  0  0  0  0  0
   31.9945  -74.7882   -1.3175 H   0  0  0  0  0  0  0  0  0  0  0  0
   31.0556  -73.5769   -0.7530 H   0  0  0  0  0  0  0  0  0  0  0  0
   32.1670  -75.6585    0.9376 H   0  0  0  0  0  0  0  0  0  0  0  0
   31.1421  -74.4905    1.4406 H   0  0  0  0  0  0  0  0  0  0  0  0
   33.5214  -71.6184   -1.3267 H   0  0  0  0  0  0  0  0  0  0  0  0
   31.9678  -71.6717   -0.8256 H   0  0  0  0  0  0  0  0  0  0  0  0
   32.6193  -71.1352    1.3898 H   0  0  0  0  0  0  0  0  0  0  0  0
   34.1977  -71.2150    0.9774 H   0  0  0  0  0  0  0  0  0  0  0  0
   33.7522  -75.8658   -0.0863 H   0  0  0  0  0  0  0  0  0  0  0  0
   35.9833  -76.8574    0.1491 H   0  0  0  0  0  0  0  0  0  0  0  0
   37.6377  -73.0595    0.0164 H   0  0  0  0  0  0  0  0  0  0  0  0
   35.5266  -72.1110   -0.1750 H   0  0  0  0  0  0  0  0  0  0  0  0
   38.3830  -76.1853    1.1427 H   0  0  0  0  0  0  0  0  0  0  0  0
   38.3779  -76.5081   -0.4584 H   0  0  0  0  0  0  0  0  0  0  0  0
   45.7663  -76.2442    1.3024 H   0  0  0  0  0  0  0  0  0  0  0  0
   45.5426  -76.9059   -0.1740 H   0  0  0  0  0  0  0  0  0  0  0  0
   47.8120  -76.0243    0.2941 H   0  0  0  0  0  0  0  0  0  0  0  0
   47.1504  -75.5663   -1.1272 H   0  0  0  0  0  0  0  0  0  0  0  0
   52.4804  -68.4599   -0.5079 H   0  0  0  0  0  0  0  0  0  0  0  0
   52.5834  -68.8482    1.0753 H   0  0  0  0  0  0  0  0  0  0  0  0
   58.9768  -67.0523    1.3086 H   0  0  0  0  0  0  0  0  0  0  0  0
   60.3018  -67.4198    0.4272 H   0  0  0  0  0  0  0  0  0  0  0  0
   59.3740  -66.2676   -1.4663 H   0  0  0  0  0  0  0  0  0  0  0  0
   58.0299  -65.9210   -0.6056 H   0  0  0  0  0  0  0  0  0  0  0  0
   59.2695  -69.9707   -1.3453 H   0  0  0  0  0  0  0  0  0  0  0  0
   60.5022  -69.2766   -0.5291 H   0  0  0  0  0  0  0  0  0  0  0  0
   59.9177  -70.5417    1.4319 H   0  0  0  0  0  0  0  0  0  0  0  0
   58.6821  -71.2337    0.6182 H   0  0  0  0  0  0  0  0  0  0  0  0
  1  2  2  0  0  0  0
  1  6  1  0  0  0  0
  2  3  1  0  0  0  0
  3  4  2  0  0  0  0
  4  5  1  0  0  0  0
  5  6  2  0  0  0  0
  8  7  1  1  0  0  0
 10  9  1  6  0  0  0
 11 12  1  1  0  0  0
 14 13  1  6  0  0  0
 15 16  1  1  0  0  0
  8 15  1  0  0  0  0
 15 10  1  0  0  0  0
 10 17  1  0  0  0  0
 17 18  1  0  0  0  0
 18  8  1  0  0  0  0
 19 14  1  0  0  0  0
 19 20  1  0  0  0  0
 14 11  1  0  0  0  0
 11 10  1  0  0  0  0
 15 20  1  0  0  0  0
 21 22  1  0  0  0  0
 21 24  2  0  0  0  0
 22 23  2  0  0  0  0
 23 43  1  0  0  0  0
 42 24  1  0  0  0  0
 25 26  1  0  0  0  0
 32 27  1  0  0  0  0
 27 25  1  0  0  0  0
 26 28  1  0  0  0  0
 27 29  1  0  0  0  0
 29 30  1  0  0  0  0
 30 31  1  0  0  0  0
 32 33  2  0  0  0  0
 32 37  1  0  0  0  0
 33 34  1  0  0  0  0
 34 35  2  0  0  0  0
 35 36  1  0  0  0  0
 36 37  2  0  0  0  0
 35 38  1  0  0  0  0
 38 39  1  0  0  0  0
 39 40  1  0  0  0  0
 39 41  2  0  0  0  0
 40 22  1  0  0  0  0
 42 43  2  0  0  0  0
 42 14  1  0  0  0  0
 43 44  1  0  0  0  0
 44 45  1  0  0  0  0
 45 11  1  0  0  0  0
  7 46  1  0  0  0  0
 46 47  2  0  0  0  0
 46 48  1  0  0  0  0
 48  6  1  0  0  0  0
  3 49  1  0  0  0  0
 49 50  1  0  0  0  0
 50 51  1  0  0  0  0
 51 52  1  0  0  0  0
 49 53  1  0  0  0  0
 53 54  1  0  0  0  0
 54 55  1  0  0  0  0
  1 56  1  0  0  0  0
  2 57  1  0  0  0  0
  4 58  1  0  0  0  0
  5 59  1  0  0  0  0
  8 60  1  0  0  0  0
 16 61  1  0  0  0  0
 16 62  1  0  0  0  0
 16 63  1  0  0  0  0
 17 64  1  0  0  0  0
 17 65  1  0  0  0  0
 18 66  1  0  0  0  0
 18 67  1  0  0  0  0
 19 68  1  0  0  0  0
 19 69  1  0  0  0  0
 20 70  1  0  0  0  0
 20 71  1  0  0  0  0
 21 72  1  0  0  0  0
 23 73  1  0  0  0  0
 24 74  1  0  0  0  0
 25 75  1  0  0  0  0
 25 76  1  0  0  0  0
 26 77  1  0  0  0  0
 26 78  1  0  0  0  0
 29 79  1  0  0  0  0
 29 80  1  0  0  0  0
 30 81  1  0  0  0  0
 30 82  1  0  0  0  0
 33 83  1  0  0  0  0
 34 84  1  0  0  0  0
 36 85  1  0  0  0  0
 37 86  1  0  0  0  0
 38 87  1  0  0  0  0
 38 88  1  0  0  0  0
 44 89  1  0  0  0  0
 44 90  1  0  0  0  0
 45 91  1  0  0  0  0
 45 92  1  0  0  0  0
 48 93  1  0  0  0  0
 48 94  1  0  0  0  0
 50 95  1  0  0  0  0
 50 96  1  0  0  0  0
 51 97  1  0  0  0  0
 51 98  1  0  0  0  0
 53 99  1  0  0  0  0
 53100  1  0  0  0  0
 54101  1  0  0  0  0
 54102  1  0  0  0  0
M  END
>  <Substance ID> (731)
731

>  <Mouse_Female_Canc> (731)
3

>  <SAL> (731)
ND

>  <Rat_Male_Canc> (731)
1

>  <TD50_Rat> (731)
NP

>  <TD50_Mouse> (731)
1.45

>  <Rat_Female_Canc> (731)
1

>  <Canc> (731)
3

>  <MolWeight> (731)
788.68

>  <Mouse_Male_Canc> (731)
3

>  <Mouse_Male_NTP> (731)
ND

>  <ChemName> (731)
Estradiol mustard

>  <Rat_Male_NTP> (731)
ND

>  <Reference> (731)
NTP59

>  <Formula> (731)
C42H50Cl4N2O4

>  <SMILES> (731)
C[C]12CC[CH]3[CH](CCC4=C3C=CC(=C4)OC(=O)CC5=CC=C(C=C5)N(CCCl)CCCl)[CH]1CC[CH]2OC(=O)CC6=CC=C(C=C6)N(CCCl)CCCl

>  <Rat_Female_NTP> (731)
ND

>  <CAS> (731)
22966-79-6

>  <Mouse_Female_NTP> (731)
ND

>  <Synonyms> (731)
bis((4-(bis(2-chloroethyl)amino)benzene)acetate)estra 1,3,5(10) triene-3,17-diol(17beta); bis((p-(bis(2-chloroethyl)amino)phenyl)acetate)estra-1,3,5(10)-triene-3,17beta-diol; bis((p-(bis(2-chloroethyl)amino)phenyl)acetate)oestradiol; estra-1,3,5(10)-triene-3,17beta-diol, bis(p-(bis(2-chloroethylamino)-phenyl)acetate).

$$$$
732
 

 25 25  0  0  0  0  0  0  0  0999 V2000
   41.1163  -84.7340    0.1585 C   0  0  0  0  0  0  0  0  0  0  0  0
   42.4426  -84.5781    0.1272 C   0  0  0  0  0  0  0  0  0  0  0  0
   43.0176  -83.2302   -0.0140 C   0  0  0  0  0  0  0  0  0  0  0  0
   42.2124  -82.1738   -0.1055 C   0  0  0  0  0  0  0  0  0  0  0  0
   40.7642  -82.3433   -0.0659 C   0  0  0  0  0  0  0  0  0  0  0  0
   40.2331  -83.5580    0.0568 C   0  0  0  0  0  0  0  0  0  0  0  0
   38.8352  -83.7023    0.0911 N   0  0  0  0  0  0  0  0  0  0  0  0
   37.9894  -82.5392    0.0160 C   0  0  0  0  0  0  0  0  0  0  0  0
   38.2423  -85.0047    0.2005 C   0  0  0  0  0  0  0  0  0  0  0  0
   44.3941  -83.0333   -0.0696 N   0  0  0  0  0  0  0  0  0  0  0  0
   45.1734  -83.9506    0.0266 N   0  0  0  0  0  0  0  0  0  0  0  0
   46.8347  -83.6082   -0.1125 S   0  0  0  0  0  0  0  0  0  0  0  0
   47.4856  -84.6377   -1.0144 O   0  0  0  0  0  0  0  0  0  0  0  0
   46.9937  -82.2257   -0.7152 O   0  0  0  0  0  0  0  0  0  0  0  0
   47.5591  -83.6438    1.4186 O   0  5  0  0  0  0  0  0  0  0  0  0
   40.7225  -85.6485    0.2510 H   0  0  0  0  0  0  0  0  0  0  0  0
   43.0430  -85.3745    0.1995 H   0  0  0  0  0  0  0  0  0  0  0  0
   42.6030  -81.2583   -0.2021 H   0  0  0  0  0  0  0  0  0  0  0  0
   40.1675  -81.5434   -0.1311 H   0  0  0  0  0  0  0  0  0  0  0  0
   37.0307  -82.8207    0.0535 H   0  0  0  0  0  0  0  0  0  0  0  0
   38.1612  -82.0564   -0.8428 H   0  0  0  0  0  0  0  0  0  0  0  0
   38.1883  -81.9317    0.7850 H   0  0  0  0  0  0  0  0  0  0  0  0
   37.2462  -84.9183    0.2105 H   0  0  0  0  0  0  0  0  0  0  0  0
   38.5471  -85.4402    1.0476 H   0  0  0  0  0  0  0  0  0  0  0  0
   38.5201  -85.5646   -0.5802 H   0  0  0  0  0  0  0  0  0  0  0  0
  1  2  2  0  0  0  0
  2  3  1  0  0  0  0
  3  4  2  0  0  0  0
  4  5  1  0  0  0  0
  5  6  2  0  0  0  0
  6  1  1  0  0  0  0
  6  7  1  0  0  0  0
  7  8  1  0  0  0  0
  7  9  1  0  0  0  0
  3 10  1  0  0  0  0
 10 11  2  0  0  0  0
 11 12  1  0  0  0  0
 12 13  2  0  0  0  0
 12 14  2  0  0  0  0
 12 15  1  0  0  0  0
  1 16  1  0  0  0  0
  2 17  1  0  0  0  0
  4 18  1  0  0  0  0
  5 19  1  0  0  0  0
  8 20  1  0  0  0  0
  8 21  1  0  0  0  0
  8 22  1  0  0  0  0
  9 23  1  0  0  0  0
  9 24  1  0  0  0  0
  9 25  1  0  0  0  0
M  END
>  <Substance ID> (732)
732

>  <Mouse_Female_Canc> (732)
1

>  <SAL> (732)
3

>  <Rat_Male_Canc> (732)
1

>  <TD50_Rat> (732)
NP

>  <TD50_Mouse> (732)
NP

>  <Rat_Female_Canc> (732)
1

>  <Canc> (732)
1

>  <MolWeight> (732)
251.24

>  <Mouse_Male_Canc> (732)
1

>  <Mouse_Male_NTP> (732)
ND

>  <ChemName> (732)
Fenaminosulf, formulated

>  <Rat_Male_NTP> (732)
ND

>  <Reference> (732)
NTP101

>  <Formula> (732)
C8H10N3O3SNa

>  <SMILES> (732)
S(/N=N/C1=CC=C(C=C1)N(C)C)(=O)(=O)[O-].[Na+]

>  <Rat_Female_NTP> (732)
ND

>  <CAS> (732)
140-56-7

>  <Mouse_Female_NTP> (732)
ND

>  <Synonyms> (732)
para-Dimethylaminobenzenediazosodium sulfonate; bay 5072; bay 72555; bayer 22555; bayer 5072; diazoben; Bravo D; DAPA; deksonal; Dexon; dexoxon; eniamethyl orange; Fenaminosulf; Formulated fenaminosulf; gold orange hp; helianthin; Lesan; Methyl orange B; para-Dimethylaminoazobenzenediazo sodium sulfonate; Sodium 4-(dimethylamino)benzenediazosulfonate; sodium (4-(dimethylamino)phenyl)diazenesulfonate; Sodium 4-dimethylaminophenyldiazosulfonate; tropaeolin d.

$$$$
733
 

  3  2  0  0  0  0  0  0  0  0999 V2000
    3.3637   -2.8034    0.0000 O   0  0  0  0  0  0  0  0  0  0  0  0
    5.0154   -2.8031    0.0002 Ti  0  0  0  0  0  0  0  0  0  0  0  0
    6.6670   -2.8028    0.0004 O   0  0  0  0  0  0  0  0  0  0  0  0
  1  2  2  0  0  0  0
  2  3  2  0  0  0  0
M  END
>  <Substance ID> (733)
733

>  <Mouse_Female_Canc> (733)
1

>  <SAL> (733)
1

>  <Rat_Male_Canc> (733)
1

>  <TD50_Rat> (733)
NP

>  <TD50_Mouse> (733)
NP

>  <Rat_Female_Canc> (733)
1

>  <Canc> (733)
1

>  <MolWeight> (733)
79.87

>  <Mouse_Male_Canc> (733)
1

>  <Mouse_Male_NTP> (733)
ND

>  <ChemName> (733)
Titanium dioxide

>  <Rat_Male_NTP> (733)
ND

>  <Reference> (733)
NTP97

>  <Formula> (733)
O2Ti

>  <SMILES> (733)
O=[Ti]=O

>  <Rat_Female_NTP> (733)
ND

>  <CAS> (733)
13463-67-7

>  <Mouse_Female_NTP> (733)
ND

>  <Synonyms> (733)
1700 white; P 25; horse head r-710; KH360; kronos; kronos 2073; kronos cl 220; kronos rn 40p; kronos rn 56; kronos titanium dioxide; levanox white rkb; octahedrite; R 680; Rayox; RO 2; runa arh 20; runa arh 200; runa rh20; rutile; rutiox cr; tiofine; tiona t.d.; tioxide; tioxide ad-m; tioxide r-cr; tioxide rhd; tioxide rsm; tioxide r.xl; tipaque; tipaque r 820; ti-pure; ti-pure r 101; ti-pure r 900; ti-pure r 901; ti-pure r 915; titafrance; titanic acid anhydride; titania; titanic anhydride; titanic oxide; TITANIUM DIOXIDE P25; Titanium(IV)Dioxide; Titanium (IV) oxide; Titanium oxide; titanium peroxide; titanium white; titanox; titanox 2010; titanox ranc; titan white; trioxide(s); tronox; unitane; unitane o-110; unitane o-220; unitane or-150; unitane or-340; unitane or-342; unitane or-350; unitane or 450; unitane or-540; unitane or 572; unitane or-640; unitane or 650; zopaque; zopaque ldc; p 25 (oxide); a-fil cream; anatase; atlas white titanium dioxide; austiox; austiox r-cr 3; bayeritian; bayertitan; bayertitan a; bayertitan r-u-f; baytitan; brookite; cab-o-ti; calcotone white t; C.I. 77891; C.I. pigment white 6; cosmetic white C47-5175; cosmetic white C47-9623; flamenco; hombitan; hombitan r 101d; hombitan r 610k; horse head a-410; horse head a-420.

$$$$
734
  

  7  6  0  0  0  0  0  0  0  0999 V2000
   -0.0617    1.5378    0.1031 O   0  0  0  0  0  0  0  0  0  1  0  0
   -0.1802   -0.0704   -0.0182 B   0  0  0  0  0  0  0  0  0  2  0  0
   -1.5725   -0.8970   -0.1427 O   0  0  0  0  0  0  0  0  0  3  0  0
    1.2153   -0.8792    0.0124 O   0  0  0  0  0  0  0  0  0  4  0  0
    0.7549    1.8440   -0.2515 H   0  0  0  0  0  0  0  0  0  5  0  0
   -1.4021   -1.8233   -0.1510 H   0  0  0  0  0  0  0  0  0  6  0  0
    1.8608   -0.4135    0.5142 H   0  0  0  0  0  0  0  0  0  7  0  0
  1  2  1  0  0  0  0
  1  5  1  0  0  0  0
  2  3  1  0  0  0  0
  2  4  1  0  0  0  0
  3  6  1  0  0  0  0
  4  7  1  1  0  0  0
M  END
>  <Substance ID> (734)
734

>  <Mouse_Female_Canc> (734)
1

>  <SAL> (734)
1

>  <Rat_Male_Canc> (734)
ND

>  <TD50_Rat> (734)
ND

>  <TD50_Mouse> (734)
NP

>  <Rat_Female_Canc> (734)
ND

>  <Canc> (734)
1

>  <MolWeight> (734)
61.83

>  <Mouse_Male_Canc> (734)
1

>  <Mouse_Male_NTP> (734)
NE

>  <ChemName> (734)
Orthoboric acid

>  <Rat_Male_NTP> (734)
ND

>  <Reference> (734)
NTP324

>  <Formula> (734)
H3O3B 

>  <SMILES> (734)
OB(O)O

>  <Rat_Female_NTP> (734)
ND

>  <CAS> (734)
10043-35-3

>  <Mouse_Female_NTP> (734)
NE

>  <Synonyms> (734)
Orthoboric acid (H3BO3); Boracic acid; Borofax; Boron trihydroxide; hydrogen orthoborate; Kill-off; Kjel-sorb; three elephant; Trihydroxyborane.

$$$$
735
 

 30 31  0  0  0  0  0  0  0  0999 V2000
   17.3542  -15.9628   -0.0031 O   0  0  0  0  0  0  0  0  0  1  0  0
   18.0587  -14.9479   -0.0006 C   0  0  0  0  0  0  0  0  0  2  0  0
   17.3745  -13.6361    0.0011 C   0  0  0  0  0  0  0  0  0  3  0  0
   18.0585  -12.4895    0.0003 C   0  0  0  0  0  0  0  0  0  4  0  0
   17.3390  -11.2085   -0.0015 C   0  0  0  0  0  0  0  0  0  5  0  0
   16.0074  -11.1844   -0.0019 C   0  0  0  0  0  0  0  0  0  6  0  0
   15.2553  -12.4361    0.0013 C   0  0  0  0  0  0  0  0  0  7  0  0
   15.9022  -13.6016    0.0026 C   0  0  0  0  0  0  0  0  0  8  0  0
   13.5261  -12.4008    0.0041 Cl  0  3  0  0  0  0  0  0  0  9  0  0
   19.4468  -12.4923   -0.0001 O   0  0  0  0  0  0  0  0  0 10  0  0
   19.4901  -15.0396   -0.0014 N   0  0  0  0  0  0  0  0  0 11  0  0
   20.2062  -16.2828   -0.0025 C   0  0  0  0  0  0  0  0  0 12  0  0
   19.5679  -17.4543   -0.0036 C   0  0  0  0  0  0  0  0  0 13  0  0
   20.3074  -18.7142   -0.0031 C   0  0  0  0  0  0  0  0  0 14  0  0
   21.6376  -18.7021    0.0004 C   0  0  0  0  0  0  0  0  0 15  0  0
   22.3556  -17.4240    0.0029 C   0  0  0  0  0  0  0  0  0 16  0  0
   21.6799  -16.2741    0.0013 C   0  0  0  0  0  0  0  0  0 17  0  0
   22.5411  -14.7759    0.0035 Cl  0  0  0  0  0  0  0  0  0 18  0  0
   22.3484  -19.9072    0.0012 N   0  3  0  0  0  0  0  0  0 19  0  0
   21.7714  -20.9324    0.0006 O   0  0  0  0  0  0  0  0  0 20  0  0
   23.6725  -19.8940    0.0017 O   0  5  0  0  0  0  0  0  0 21  0  0
   17.8518  -10.3500   -0.0025 H   0  0  0  0  0  0  0  0  0  0  0  0
   15.5229  -10.3096   -0.0043 H   0  0  0  0  0  0  0  0  0  0  0  0
   15.3849  -14.4573    0.0046 H   0  0  0  0  0  0  0  0  0  0  0  0
   13.1731  -13.3364    0.0062 H   0  0  0  0  0  0  0  0  0  0  0  0
   19.7825  -11.5504   -0.0007 H   0  0  0  0  0  0  0  0  0  0  0  0
   20.0180  -14.1903   -0.0013 H   0  0  0  0  0  0  0  0  0  0  0  0
   18.5681  -17.4702   -0.0048 H   0  0  0  0  0  0  0  0  0  0  0  0
   19.8145  -19.5842   -0.0054 H   0  0  0  0  0  0  0  0  0  0  0  0
   23.3555  -17.4142    0.0059 H   0  0  0  0  0  0  0  0  0  0  0  0
  1  2  2  0  0  0  0
  2  3  1  0  0  0  0
  2 11  1  0  0  0  0
  3  4  2  0  0  0  0
  3  8  1  0  0  0  0
  4  5  1  0  0  0  0
  4 10  1  0  0  0  0
  5  6  2  0  0  0  0
  6  7  1  0  0  0  0
  7  8  2  0  0  0  0
  7  9  1  0  0  0  0
 11 12  1  0  0  0  0
 12 13  2  0  0  0  0
 12 17  1  0  0  0  0
 13 14  1  0  0  0  0
 14 15  2  0  0  0  0
 15 16  1  0  0  0  0
 15 19  1  0  0  0  0
 16 17  2  0  0  0  0
 17 18  1  0  0  0  0
 19 20  2  0  0  0  0
 19 21  1  0  0  0  0
  5 22  1  0  0  0  0
  6 23  1  0  0  0  0
  8 24  1  0  0  0  0
  9 25  1  0  0  0  0
 10 26  1  0  0  0  0
 11 27  1  0  0  0  0
 13 28  1  0  0  0  0
 14 29  1  0  0  0  0
 16 30  1  0  0  0  0
M  END
>  <Substance ID> (735)
735

>  <Mouse_Female_Canc> (735)
1

>  <SAL> (735)
ND

>  <Rat_Male_Canc> (735)
1

>  <TD50_Rat> (735)
NP

>  <TD50_Mouse> (735)
NP

>  <Rat_Female_Canc> (735)
2

>  <Canc> (735)
2

>  <MolWeight> (735)
327.12

>  <Mouse_Male_Canc> (735)
ND

>  <Mouse_Male_NTP> (735)
ND

>  <ChemName> (735)
Clonitralid

>  <Rat_Male_NTP> (735)
ND

>  <Reference> (735)
NTP91

>  <Formula> (735)
C13H8Cl2N2O4

>  <SMILES> (735)
O=C(C1=C(C=CC(=C1)Cl)O)NC2=CC=C(C=C2Cl)[N+](=O)[O-]

>  <Rat_Female_NTP> (735)
ND

>  <CAS> (735)
1420-04-8

>  <Mouse_Female_NTP> (735)
ND

>  <Synonyms> (735)
2',5-dichloro-4'-nitrosalicylanilide, 2-aminoethanol salt; 2',5-dichloro-4'-nitrosalicylanilide compd. with 2-aminoethanol (1:1); 2',5-dichloro-4-nitrosalicylanilide ethanolamine salt; M 73; 5,2'-dichloro-4'-nitrosalicylanilide, ethanolamine salt; 5,2'-dichloro-4'-nitrosalicylic anilide 2-aminoethanol salt; 5-Chloro-N-(2-chloro-4-nitrophenyl)-2-hydroxybenzamide, 2-aminoethanol salt; 5-chloro-N-(2-chloro-4-nitrophenyl)-2-hydroxybenzamide compound with 2-aminoethanol (1:1); Aminoethanol salt of 2',5-dichloro-4'-nitrosalicylanilide; Aminoethanol salt of 5-chloro-N-(2-chloro-4-nitrophenyl)-2-hydroxybenzamide; bayer 25648; bayer 73; bayluscide; Benzamide, 5-chloro-N-(2-chloro-4-nitrophenyl)-2-hydroxy-, compd. with 2-aminoethanol (1:1); Dichloro-4'-nitrosalicylanilide, 2-aminoethanol salt; ethanolamine salt of 5,2'-dichloro-4'-nitrosalicylanilide; Mollutox; Niclosamide; Phenasal ethanolamine salt; Salicylanilide, 2',5-dichloro-4'-nitro-, ethanolamine salt; SR 73; Yomesan.

$$$$
736
 

 38 43  0  0  0  0  0  0  0  0999 V2000
    5.5225  -26.2953   -0.0000 C   0  0  0  0  0  0  0  0  0  0  0  0
    5.5260  -27.7584    0.0003 C   0  0  0  0  0  0  0  0  0  0  0  0
    6.6805  -28.4238   -0.0010 C   0  0  0  0  0  0  0  0  0  0  0  0
    6.6744  -25.6276   -0.0005 C   0  0  0  0  0  0  0  0  0  0  0  0
    7.9463  -26.3565   -0.0004 C   0  0  0  0  0  0  0  0  0  0  0  0
    7.9512  -27.6889   -0.0002 C   0  0  0  0  0  0  0  0  0  0  0  0
    9.2138  -25.6190    0.0002 C   0  0  0  0  0  0  0  0  0  0  0  0
   10.4847  -26.3491    0.0002 C   0  0  0  0  0  0  0  0  0  0  0  0
   12.9076  -26.2966   -0.0003 C   0  0  0  0  0  0  0  0  0  0  0  0
   11.7568  -25.6230   -0.0002 C   0  0  0  0  0  0  0  0  0  0  0  0
   10.4841  -27.6791    0.0000 C   0  0  0  0  0  0  0  0  0  0  0  0
    9.2290  -28.4171   -0.0000 C   0  0  0  0  0  0  0  0  0  0  0  0
    9.2477  -29.7518   -0.0005 C   0  0  0  0  0  0  0  0  0  0  0  0
   10.5289  -30.4987   -0.0001 C   0  0  0  0  0  0  0  0  0  0  0  0
   12.9021  -27.7633    0.0005 C   0  0  0  0  0  0  0  0  0  0  0  0
   11.7360  -28.4120    0.0004 C   0  0  0  0  0  0  0  0  0  0  0  0
   11.6992  -29.8571    0.0002 C   0  0  0  0  0  0  0  0  0  0  0  0
   12.9521  -30.5892   -0.0002 C   0  0  0  0  0  0  0  0  0  0  0  0
   14.1877  -28.5070    0.0006 C   0  0  0  0  0  0  0  0  0  0  0  0
   14.2057  -29.8428    0.0002 C   0  0  0  0  0  0  0  0  0  0  0  0
   15.4839  -30.5614   -0.0003 C   0  0  0  0  0  0  0  0  0  0  0  0
   16.6306  -29.8845   -0.0006 C   0  0  0  0  0  0  0  0  0  0  0  0
   16.6143  -28.4215   -0.0006 C   0  0  0  0  0  0  0  0  0  0  0  0
   15.4539  -27.7667    0.0000 C   0  0  0  0  0  0  0  0  0  0  0  0
    9.2097  -24.3832    0.0003 O   0  0  0  0  0  0  0  0  0  0  0  0
   12.9594  -31.8248   -0.0004 O   0  0  0  0  0  0  0  0  0  0  0  0
    4.6554  -25.7970    0.0002 H   0  0  0  0  0  0  0  0  0  0  0  0
    4.6608  -28.2598    0.0015 H   0  0  0  0  0  0  0  0  0  0  0  0
    6.6813  -29.4238   -0.0025 H   0  0  0  0  0  0  0  0  0  0  0  0
    6.6720  -24.6276   -0.0010 H   0  0  0  0  0  0  0  0  0  0  0  0
   13.7761  -25.8009   -0.0009 H   0  0  0  0  0  0  0  0  0  0  0  0
   11.7623  -24.6230   -0.0005 H   0  0  0  0  0  0  0  0  0  0  0  0
    8.3841  -30.2560   -0.0010 H   0  0  0  0  0  0  0  0  0  0  0  0
   10.5157  -31.4986   -0.0001 H   0  0  0  0  0  0  0  0  0  0  0  0
   15.4944  -31.5613   -0.0004 H   0  0  0  0  0  0  0  0  0  0  0  0
   17.5018  -30.3755   -0.0007 H   0  0  0  0  0  0  0  0  0  0  0  0
   17.4750  -27.9124   -0.0012 H   0  0  0  0  0  0  0  0  0  0  0  0
   15.4462  -26.7668    0.0001 H   0  0  0  0  0  0  0  0  0  0  0  0
  1  2  1  0  0  0  0
  1  4  2  0  0  0  0
  2  3  2  0  0  0  0
  3  6  1  0  0  0  0
  5  4  1  0  0  0  0
  5  6  2  0  0  0  0
  5  7  1  0  0  0  0
  6 12  1  0  0  0  0
  8  7  1  0  0  0  0
  8 11  2  0  0  0  0
  8 10  1  0  0  0  0
 15  9  1  0  0  0  0
  9 10  2  0  0  0  0
 11 12  1  0  0  0  0
 11 16  1  0  0  0  0
 12 13  2  0  0  0  0
 13 14  1  0  0  0  0
 14 17  2  0  0  0  0
 15 16  2  0  0  0  0
 15 19  1  0  0  0  0
 16 17  1  0  0  0  0
 17 18  1  0  0  0  0
 18 20  1  0  0  0  0
 19 20  2  0  0  0  0
 19 24  1  0  0  0  0
 20 21  1  0  0  0  0
 21 22  2  0  0  0  0
 22 23  1  0  0  0  0
 23 24  2  0  0  0  0
  7 25  2  0  0  0  0
 18 26  2  0  0  0  0
  1 27  1  0  0  0  0
  2 28  1  0  0  0  0
  3 29  1  0  0  0  0
  4 30  1  0  0  0  0
  9 31  1  0  0  0  0
 10 32  1  0  0  0  0
 13 33  1  0  0  0  0
 14 34  1  0  0  0  0
 21 35  1  0  0  0  0
 22 36  1  0  0  0  0
 23 37  1  0  0  0  0
 24 38  1  0  0  0  0
M  END
>  <Substance ID> (736)
736

>  <Mouse_Female_Canc> (736)
1

>  <SAL> (736)
1

>  <Rat_Male_Canc> (736)
1

>  <TD50_Rat> (736)
NP

>  <TD50_Mouse> (736)
10900

>  <Rat_Female_Canc> (736)
1

>  <Canc> (736)
3

>  <MolWeight> (736)
332.36

>  <Mouse_Male_Canc> (736)
3

>  <Mouse_Male_NTP> (736)
ND

>  <ChemName> (736)
C.I. vat yellow 4

>  <Rat_Male_NTP> (736)
ND

>  <Reference> (736)
NTP134

>  <Formula> (736)
C24H12O2

>  <SMILES> (736)
O=C2c1ccccc1c6c5c2ccc4c3ccccc3C(=O)c(c45)cc6

>  <Rat_Female_NTP> (736)
ND

>  <CAS> (736)
128-66-5

>  <Mouse_Female_NTP> (736)
ND

>  <Synonyms> (736)
1',2',6',7'-dibenzpyrene-7,14-quinone; paradone golden yellow; ahcovat printing golden yellow; amanthrene golden yellow; anthravat golden yellow; arlanthrene golden yellow; benzadone golden yellow; dibenzo[a,h]pyrene-7,14-dione; Dibenzo[b,def]chrysene-7,14-dione; calcoloid golden yellow; caledon golden yellow; caledon printing yellow; carbanthrene golden yellow; C.I. 59100; cibanone golden yellow; C.I. vat yellow; femanthren golden yellow; golden yellow; helanthrene yellow; hostavat golden yellow; indanthrene golden yellow; indanthren printing yellow; leucosol golden yellow; mayvat golden yellow; mikethrene golden yellow; nihonthrene golden yellow; nyanthrene golden yellow; palanthrene golden yellow; pharmanthrene golden yellow; romantrene golden yellow; sandothrene golden yellow; sandothrene printing yellow; solanthrene brilliant yellow; tinon golden yellow; tyrion yellow; vat golden yellow; Vat Yellow 4; yellow.

$$$$
737
 

  5  4  0  0  0  0  0  0  0  0999 V2000
    4.4108  -40.5388    0.6658 Cl  0  0  0  0  0  0  0  0  0  0  0  0
    5.7979  -39.7046   -0.0433 C   0  0  0  0  0  0  0  0  0  0  0  0
    6.7107  -40.8323   -1.0519 Cl  0  0  0  0  0  0  0  0  0  0  0  0
    6.8391  -39.0922    1.2463 Cl  0  0  0  0  0  0  0  0  0  0  0  0
    5.3549  -38.6509   -0.8164 F   0  0  0  0  0  0  0  0  0  0  0  0
  1  2  1  0  0  0  0
  2  3  1  0  0  0  0
  2  4  1  0  0  0  0
  2  5  1  0  0  0  0
M  END
>  <Substance ID> (737)
737

>  <Mouse_Female_Canc> (737)
1

>  <SAL> (737)
1

>  <Rat_Male_Canc> (737)
1

>  <TD50_Rat> (737)
NP

>  <TD50_Mouse> (737)
NP

>  <Rat_Female_Canc> (737)
1

>  <Canc> (737)
1

>  <MolWeight> (737)
137.37

>  <Mouse_Male_Canc> (737)
1

>  <Mouse_Male_NTP> (737)
ND

>  <ChemName> (737)
Trichlorofluoromethane

>  <Rat_Male_NTP> (737)
ND

>  <Reference> (737)
CPDB & NTP106

>  <Formula> (737)
CCl3F

>  <SMILES> (737)
FC(Cl)(Cl)Cl

>  <Rat_Female_NTP> (737)
ND

>  <CAS> (737)
75-69-4

>  <Mouse_Female_NTP> (737)
ND

>  <Synonyms> (737)
Aigofrene type 1; arcton 9; CFC-11; electro-cf 11; eskimon 11; F-11; FC 11; Fluorocarbon 11; fluorocarbon no.11; Fluorotrichloromethane; Flurotrichloromethane; Freon-11; frigen 11; genetron 11; Halocarbon 11; HALON 11; isceon 131; isotron 11; Kaltron 11; Khaladon 11; ledon 11; Propellent 11; TRICHLOROFLUOROMETHANE (MONOFLUOROTRICHLOROMETHANE); Trichloromonofluoromethane.

$$$$
738
  

 41 40  0  0  0  0  0  0  0  0999 V2000
    4.4255  -49.7128    0.4479 C   0  0  0  0  0  0  0  0  0  0
    5.4291  -48.9136   -0.0731 O   0  0  0  0  0  0  0  0  0  0
    7.3353  -49.7598   -0.0883 Sn  0  0  0  0  0  0  0  0  0  0
    8.6571  -48.2513   -0.9066 C   0  0  0  0  0  0  0  0  0  0
   10.0566  -48.8829   -0.9968 C   0  0  0  0  0  0  0  0  0  0
   11.1037  -47.8931   -1.4973 C   0  0  0  0  0  0  0  0  0  0
   12.4690  -48.6086   -1.5144 C   0  0  0  0  0  0  0  0  0  0
    3.0228  -49.1993    0.5413 C   0  0  0  0  0  0  0  0  0  0
    4.6869  -50.8669    0.8502 O   0  0  0  0  0  0  0  0  0  0
    7.4955  -51.3751   -1.4266 O   0  0  0  0  0  0  0  0  0  0
    7.0875  -52.6790   -1.0324 C   0  0  0  0  0  0  0  0  0  0
    6.6363  -52.9903    0.3628 C   0  0  0  0  0  0  0  0  0  0
    7.1386  -53.5853   -1.8531 O   0  0  0  0  0  0  0  0  0  0
    7.9604  -50.1566    1.9906 C   0  0  0  0  0  0  0  0  0  0
    9.4835  -50.4169    2.1767 C   0  0  0  0  0  0  0  0  0  0
   10.0061  -51.6398    1.4152 C   0  0  0  0  0  0  0  0  0  0
   11.5314  -51.7297    1.6413 C   0  0  0  0  0  0  0  0  0  0
    8.3445  -47.9774   -1.8162 H   0  0  0  0  0  0  0  0  0  0
    8.6791  -47.4517   -0.3065 H   0  0  0  0  0  0  0  0  0  0
   10.3245  -49.2032   -0.0882 H   0  0  0  0  0  0  0  0  0  0
   10.0198  -49.6587   -1.6267 H   0  0  0  0  0  0  0  0  0  0
   10.8688  -47.5892   -2.4205 H   0  0  0  0  0  0  0  0  0  0
   11.1428  -47.1030   -0.8856 H   0  0  0  0  0  0  0  0  0  0
   13.1727  -47.9772   -1.8400 H   0  0  0  0  0  0  0  0  0  0
   12.4237  -49.3998   -2.1244 H   0  0  0  0  0  0  0  0  0  0
   12.6976  -48.9137   -0.5898 H   0  0  0  0  0  0  0  0  0  0
    2.4350  -49.9040    0.9386 H   0  0  0  0  0  0  0  0  0  0
    2.6912  -48.9658   -0.3728 H   0  0  0  0  0  0  0  0  0  0
    3.0035  -48.3843    1.1206 H   0  0  0  0  0  0  0  0  0  0
    6.3953  -53.9586    0.4274 H   0  0  0  0  0  0  0  0  0  0
    5.8371  -52.4327    0.5874 H   0  0  0  0  0  0  0  0  0  0
    7.3750  -52.7875    1.0056 H   0  0  0  0  0  0  0  0  0  0
    7.7103  -49.3643    2.5470 H   0  0  0  0  0  0  0  0  0  0
    7.4654  -50.9624    2.3156 H   0  0  0  0  0  0  0  0  0  0
    9.9814  -49.6110    1.8562 H   0  0  0  0  0  0  0  0  0  0
    9.6620  -50.5538    3.1511 H   0  0  0  0  0  0  0  0  0  0
    9.5632  -52.4679    1.7590 H   0  0  0  0  0  0  0  0  0  0
    9.8135  -51.5390    0.4391 H   0  0  0  0  0  0  0  0  0  0
   11.8951  -52.5225    1.1523 H   0  0  0  0  0  0  0  0  0  0
   11.7188  -51.8268    2.6188 H   0  0  0  0  0  0  0  0  0  0
   11.9691  -50.8981    1.2993 H   0  0  0  0  0  0  0  0  0  0
  1  2  1  0  0  0
  2  3  1  0  0  0
  3  4  1  0  0  0
  4  5  1  0  0  0
  5  6  1  0  0  0
  6  7  1  0  0  0
  1  8  1  0  0  0
  1  9  2  0  0  0
  3 10  1  0  0  0
 10 11  1  0  0  0
 11 12  1  0  0  0
 11 13  2  0  0  0
  3 14  1  0  0  0
 14 15  1  0  0  0
 15 16  1  0  0  0
 16 17  1  0  0  0
  4 18  1  0  0  0
  4 19  1  0  0  0
  5 20  1  0  0  0
  5 21  1  0  0  0
  6 22  1  0  0  0
  6 23  1  0  0  0
  7 24  1  0  0  0
  7 25  1  0  0  0
  7 26  1  0  0  0
  8 27  1  0  0  0
  8 28  1  0  0  0
  8 29  1  0  0  0
 12 30  1  0  0  0
 12 31  1  0  0  0
 12 32  1  0  0  0
 14 33  1  0  0  0
 14 34  1  0  0  0
 15 35  1  0  0  0
 15 36  1  0  0  0
 16 37  1  0  0  0
 16 38  1  0  0  0
 17 39  1  0  0  0
 17 40  1  0  0  0
 17 41  1  0  0  0
M  END
>  <Substance ID> (738)
738

>  <Mouse_Female_Canc> (738)
1

>  <SAL> (738)
1

>  <Rat_Male_Canc> (738)
1

>  <TD50_Rat> (738)
NP

>  <TD50_Mouse> (738)
NP

>  <Rat_Female_Canc> (738)
ND

>  <Canc> (738)
1

>  <MolWeight> (738)
351.03

>  <Mouse_Male_Canc> (738)
1

>  <Mouse_Male_NTP> (738)
ND

>  <ChemName> (738)
Dibutly Tin Diacetate

>  <Rat_Male_NTP> (738)
ND

>  <Reference> (738)
NTP183

>  <Formula> (738)
C12H24O4Sn

>  <SMILES> (738)
CCCC[Sn](CCCC)(OC(=O)(C))OC(=O)(C)

>  <Rat_Female_NTP> (738)
ND

>  <CAS> (738)
1067-33-0

>  <Mouse_Female_NTP> (738)
ND

>  <Synonyms> (738)
ba 2726; diacetoxydibutlyltin; diacetoxydibutylstannane; bis(acetyloxy)dibutyl stannane; dibutyldiacetoxystannane; Dibutyltin acetate; Dibutyltin diacetate; Di-n-Butyldiacetoxytin; Di-n-butyltin diacetate; ti(catalyst).

$$$$
739
 

 16 15  0  0  0  0  0  0  0  0999 V2000
    3.6449  -58.9923    0.4156 C   0  0  0  0  0  0  0  0  0  0  0  0
    4.7494  -58.1850    0.8409 O   0  0  0  0  0  0  0  0  0  0  0  0
    5.9351  -58.4193   -0.0623 P   0  0  0  0  0  0  0  0  0  0  0  0
    7.2427  -58.1748    0.6500 O   0  0  0  0  0  0  0  0  0  0  0  0
    8.2753  -58.9762    0.0633 C   0  0  0  0  0  0  0  0  0  0  0  0
    5.8841  -59.5462   -0.7869 O   0  0  0  0  0  0  0  0  0  0  0  0
    5.8484  -57.2010   -1.1202 C   0  0  0  0  0  0  0  0  0  0  0  0
    2.8630  -58.8323    1.0180 H   0  0  0  0  0  0  0  0  0  0  0  0
    3.9027  -59.9577    0.4541 H   0  0  0  0  0  0  0  0  0  0  0  0
    3.3970  -58.7511   -0.5228 H   0  0  0  0  0  0  0  0  0  0  0  0
    9.1385  -58.8094    0.5397 H   0  0  0  0  0  0  0  0  0  0  0  0
    8.3762  -58.7361   -0.9022 H   0  0  0  0  0  0  0  0  0  0  0  0
    8.0329  -59.9431    0.1424 H   0  0  0  0  0  0  0  0  0  0  0  0
    6.6042  -57.2699   -1.7713 H   0  0  0  0  0  0  0  0  0  0  0  0
    5.9079  -56.3302   -0.6321 H   0  0  0  0  0  0  0  0  0  0  0  0
    4.9794  -57.2479   -1.6128 H   0  0  0  0  0  0  0  0  0  0  0  0
  1  2  1  0  0  0  0
  2  3  1  0  0  0  0
  3  4  1  0  0  0  0
  4  5  1  0  0  0  0
  3  6  2  0  0  0  0
  3  7  1  0  0  0  0
  1  8  1  0  0  0  0
  1  9  1  0  0  0  0
  1 10  1  0  0  0  0
  5 11  1  0  0  0  0
  5 12  1  0  0  0  0
  5 13  1  0  0  0  0
  7 14  1  0  0  0  0
  7 15  1  0  0  0  0
  7 16  1  0  0  0  0
M  END
>  <Substance ID> (739)
739

>  <Mouse_Female_Canc> (739)
1

>  <SAL> (739)
1

>  <Rat_Male_Canc> (739)
3

>  <TD50_Rat> (739)
700

>  <TD50_Mouse> (739)
NP

>  <Rat_Female_Canc> (739)
1

>  <Canc> (739)
3

>  <MolWeight> (739)
124.08

>  <Mouse_Male_Canc> (739)
ND

>  <Mouse_Male_NTP> (739)
ND

>  <ChemName> (739)
Dimethyl methylphosphonate

>  <Rat_Male_NTP> (739)
SE

>  <Reference> (739)
NTP323

>  <Formula> (739)
C3H9O3P

>  <SMILES> (739)
CP(=O)(OC)OC

>  <Rat_Female_NTP> (739)
NE

>  <CAS> (739)
756-79-6

>  <Mouse_Female_NTP> (739)
NE

>  <Synonyms> (739)
Dimethyl methanephosphonate; Dimethyl methylphosphonate~Methanephosphonic acid dimethyl ester; DMMP; methylphosphonic acid dimethyl ester.

$$$$
740
 

  3  2  0  0  0  0  0  0  0  0999 V2000
    3.3375  -67.2287    0.0002 Cl  0  0  0  0  0  0  0  0  0  1  0  0
    5.2905  -65.8389    0.0012 Sn  0  0  0  0  0  0  0  0  0  2  0  0
    7.2524  -67.2159    0.0008 Cl  0  0  0  0  0  0  0  0  0  3  0  0
  1  2  1  0  0  0  0
  2  3  1  0  0  0  0
M  END
>  <Substance ID> (740)
740

>  <Mouse_Female_Canc> (740)
1

>  <SAL> (740)
1

>  <Rat_Male_Canc> (740)
2

>  <TD50_Rat> (740)
NP

>  <TD50_Mouse> (740)
NP

>  <Rat_Female_Canc> (740)
1

>  <Canc> (740)
2

>  <MolWeight> (740)
189.62

>  <Mouse_Male_Canc> (740)
1

>  <Mouse_Male_NTP> (740)
ND

>  <ChemName> (740)
Stannous Chloride

>  <Rat_Male_NTP> (740)
ND

>  <Reference> (740)
NTP231

>  <Formula> (740)
Cl2Sn

>  <SMILES> (740)
Cl[Sn]Cl

>  <Rat_Female_NTP> (740)
ND

>  <CAS> (740)
7772-99-8

>  <Mouse_Female_NTP> (740)
ND

>  <Synonyms> (740)
C.I. 77864; stannochlor; tin dichloride; Tin(II)Chloride; STANNOUS CHLORIDE, 10% W/V; tin(II) chloride (1:2); tin protochloride.

$$$$
741
 

 19 18  0  0  0  0  0  0  0  0999 V2000
   -0.6202   -1.2593    0.0123 N   0  0  0  0  0  0  0  0  0  1  0  0
    0.3705   -0.4611   -0.5308 C   0  0  0  0  0  0  0  0  0  2  0  0
    2.1139   -1.0063   -0.6471 S   0  0  0  0  0  0  0  0  0  3  0  0
    0.1839    1.0433   -0.9731 S   0  0  0  0  0  0  0  0  0  4  0  0
   -1.8298   -0.6882    0.6133 C   0  0  0  0  0  0  0  0  0  5  0  0
   -0.4429   -2.7021    0.2069 C   0  0  0  0  0  0  0  0  0  6  0  0
   -2.9496   -0.4575   -0.4113 C   0  0  0  0  0  0  0  0  0  7  0  0
   -1.6734   -3.5674   -0.1071 C   0  0  0  0  0  0  0  0  0  8  0  0
    2.2616   -2.2452   -0.1424 H   0  0  0  0  0  0  0  0  0  9  0  0
   -1.5824    0.2731    1.1213 H   0  0  0  0  0  0  0  0  0 10  0  0
   -2.2009   -1.3358    1.4400 H   0  0  0  0  0  0  0  0  0 11  0  0
   -0.0979   -2.8853    1.2518 H   0  0  0  0  0  0  0  0  0 12  0  0
    0.3524   -3.0790   -0.4771 H   0  0  0  0  0  0  0  0  0 13  0  0
   -3.8442   -0.0085    0.0787 H   0  0  0  0  0  0  0  0  0 14  0  0
   -3.2773   -1.4055   -0.8914 H   0  0  0  0  0  0  0  0  0 15  0  0
   -2.6351    0.2345   -1.2239 H   0  0  0  0  0  0  0  0  0 16  0  0
   -1.4257   -4.6495   -0.0038 H   0  0  0  0  0  0  0  0  0 17  0  0
   -2.0205   -3.4090   -1.1536 H   0  0  0  0  0  0  0  0  0 18  0  0
   -2.5258   -3.3783    0.5818 H   0  0  0  0  0  0  0  0  0 19  0  0
  1  2  1  0  0  0  0
  1  5  1  0  0  0  0
  1  6  1  0  0  0  0
  2  3  1  0  0  0  0
  2  4  2  0  0  0  0
  3  9  1  0  0  0  0
  5  7  1  6  0  0  0
  5 10  1  1  0  0  0
  5 11  1  1  0  0  0
  6  8  1  0  0  0  0
  6 12  1  1  0  0  0
  6 13  1  6  0  0  0
  7 14  1  0  0  0  0
  7 15  1  0  0  0  0
  7 16  1  6  0  0  0
  8 17  1  0  0  0  0
  8 18  1  6  0  0  0
  8 19  1  1  0  0  0
M  END
>  <Substance ID> (741)
741

>  <Mouse_Female_Canc> (741)
1

>  <SAL> (741)
1

>  <Rat_Male_Canc> (741)
1

>  <TD50_Rat> (741)
NP

>  <TD50_Mouse> (741)
NP

>  <Rat_Female_Canc> (741)
1

>  <Canc> (741)
1

>  <MolWeight> (741)
149.27

>  <Mouse_Male_Canc> (741)
1

>  <Mouse_Male_NTP> (741)
ND

>  <ChemName> (741)
Sodium N,N-diethyldithiocarbamate trihydrate

>  <Rat_Male_NTP> (741)
ND

>  <Reference> (741)
NTP172

>  <Formula> (741)
C5H11NS2

>  <SMILES> (741)
N(C(S)=S)(CC)CC

>  <Rat_Female_NTP> (741)
ND

>  <CAS> (741)
148-18-5

>  <Mouse_Female_NTP> (741)
ND

>  <Synonyms> (741)
Diethylcarbamodithioic acid; Dithiocarb; cupral; DDTC; DEDC; DEDK; DeDTC; DTC; Imuthiol; SDDC; sodium diethyldithiocarbamate; Sodium diethyldithiocarbamate, ACS; Sodium diethyldithiocarbamate; Diethyldithiocarbamic acid sodium salt; Diethylcarbamodithioic acid, sodium salt; Ditiocarb sodium; sodium dedt; Sodium N,N-Diethyldithiocarbamate; sodium salt of N,N-diethyldithiocarbamic acid; thiocarb.

$$$$
742
 

 38 39  0  0  0  0  0  0  0  0999 V2000
   -3.1819   -4.4903    1.5862 C   0  0  0  0  0  0  0  0  0  1  0  0
   -2.9930   -5.8685    1.7103 C   0  0  0  0  0  0  0  0  0  2  0  0
   -1.7222   -6.3779    1.4459 C   0  0  0  0  0  0  0  0  0  3  0  0
   -0.7155   -5.4849    1.0745 C   0  0  0  0  0  0  0  0  0  4  0  0
   -0.9924   -4.1151    0.9724 C   0  0  0  0  0  0  0  0  0  5  0  0
   -2.2181   -3.6343    1.2286 N   0  0  0  0  0  0  0  0  0  6  0  0
    0.0737   -3.1157    0.5600 C   0  0  1  0  0  0  0  0  0  7  0  0
    0.4967   -3.3393   -0.9073 C   0  0  0  0  0  0  0  0  0  8  0  0
    1.6500   -2.4156   -1.3428 C   0  0  0  0  0  0  0  0  0  9  0  0
    2.2334   -2.7640   -2.6363 N   0  0  0  0  0  0  0  0  0 10  0  0
   -0.3379   -1.6821    0.8570 C   0  0  0  0  0  0  0  0  0 11  0  0
    0.1625   -1.0150    1.9832 C   0  0  0  0  0  0  0  0  0 12  0  0
   -0.2453    0.2820    2.3031 C   0  0  0  0  0  0  0  0  0 13  0  0
   -1.1775    0.9369    1.4959 C   0  0  0  0  0  0  0  0  0 14  0  0
   -1.6782    0.2955    0.3621 C   0  0  0  0  0  0  0  0  0 15  0  0
   -1.2591   -1.0004    0.0515 C   0  0  0  0  0  0  0  0  0 16  0  0
   -1.7224    2.5187    1.9083 Cl  0  0  0  0  0  0  0  0  0 17  0  0
    3.4075   -1.9438   -2.9038 C   0  0  0  0  0  0  0  0  0 18  0  0
    1.2777   -2.6458   -3.7283 C   0  0  0  0  0  0  0  0  0 19  0  0
   -4.1717   -4.0492    1.7873 H   0  0  0  0  0  0  0  0  0 20  0  0
   -3.8198   -6.5323    2.0076 H   0  0  0  0  0  0  0  0  0 21  0  0
   -1.5200   -7.4573    1.5287 H   0  0  0  0  0  0  0  0  0 22  0  0
    0.2966   -5.8651    0.8636 H   0  0  0  0  0  0  0  0  0 23  0  0
    0.9663   -3.3512    1.1917 H   0  0  0  0  0  0  0  0  0 24  0  0
   -0.3912   -3.2066   -1.5655 H   0  0  0  0  0  0  0  0  0 25  0  0
    0.8346   -4.3948   -1.0430 H   0  0  0  0  0  0  0  0  0 26  0  0
    2.4465   -2.4947   -0.5635 H   0  0  0  0  0  0  0  0  0 27  0  0
    1.3045   -1.3553   -1.3517 H   0  0  0  0  0  0  0  0  0 28  0  0
    0.8795   -1.5224    2.6489 H   0  0  0  0  0  0  0  0  0 29  0  0
    0.1582    0.7716    3.2043 H   0  0  0  0  0  0  0  0  0 30  0  0
   -2.4203    0.7935   -0.2832 H   0  0  0  0  0  0  0  0  0 31  0  0
   -1.6944   -1.4940   -0.8315 H   0  0  0  0  0  0  0  0  0 32  0  0
    3.8905   -2.2510   -3.8596 H   0  0  0  0  0  0  0  0  0 33  0  0
    4.1717   -2.0789   -2.1045 H   0  0  0  0  0  0  0  0  0 34  0  0
    3.1451   -0.8631   -2.9679 H   0  0  0  0  0  0  0  0  0 35  0  0
    1.7640   -2.8821   -4.7023 H   0  0  0  0  0  0  0  0  0 36  0  0
    0.8500   -1.6189   -3.7870 H   0  0  0  0  0  0  0  0  0 37  0  0
    0.4489   -3.3793   -3.6191 H   0  0  0  0  0  0  0  0  0 38  0  0
  1  2  2  0  0  0  0
  1  6  1  0  0  0  0
  1 20  1  0  0  0  0
  2  3  1  0  0  0  0
  2 21  1  0  0  0  0
  3  4  2  0  0  0  0
  3 22  1  0  0  0  0
  4  5  1  0  0  0  0
  4 23  1  0  0  0  0
  5  6  2  0  0  0  0
  5  7  1  0  0  0  0
  7  8  1  6  0  0  0
  7 11  1  0  0  0  0
  7 24  1  1  0  0  0
  8  9  1  0  0  0  0
  8 25  1  6  0  0  0
  8 26  1  0  0  0  0
  9 10  1  6  0  0  0
  9 27  1  1  0  0  0
  9 28  1  0  0  0  0
 10 18  1  0  0  0  0
 10 19  1  6  0  0  0
 11 12  2  0  0  0  0
 11 16  1  6  0  0  0
 12 13  1  0  0  0  0
 12 29  1  1  0  0  0
 13 14  2  0  0  0  0
 13 30  1  1  0  0  0
 14 15  1  6  0  0  0
 14 17  1  0  0  0  0
 15 16  2  0  0  0  0
 15 31  1  6  0  0  0
 16 32  1  6  0  0  0
 18 33  1  6  0  0  0
 18 34  1  1  0  0  0
 18 35  1  0  0  0  0
 19 36  1  6  0  0  0
 19 37  1  0  0  0  0
 19 38  1  0  0  0  0
M  END
>  <Substance ID> (742)
742

>  <Mouse_Female_Canc> (742)
1

>  <SAL> (742)
1

>  <Rat_Male_Canc> (742)
1

>  <TD50_Rat> (742)
NP

>  <TD50_Mouse> (742)
NP

>  <Rat_Female_Canc> (742)
1

>  <Canc> (742)
1

>  <MolWeight> (742)
274.79

>  <Mouse_Male_Canc> (742)
1

>  <Mouse_Male_NTP> (742)
NE

>  <ChemName> (742)
Chlorpheniramine maleate

>  <Rat_Male_NTP> (742)
NE

>  <Reference> (742)
NTP317

>  <Formula> (742)
C16H19ClN2

>  <SMILES> (742)
C[N](CCC(C1=CC=C(C=C1)Cl)C2=NC=CC=C2)C

>  <Rat_Female_NTP> (742)
NE

>  <CAS> (742)
113-92-8

>  <Mouse_Female_NTP> (742)
NE

>  <Synonyms> (742)
1-p-chlorophenyl-1-(2-pyridyl)-3-dimethylaminopropane maleate; 1-(N,N-dimethylamino)-3-(p-chlorophenyl)-3-(alpha-pyridyl)propane maleate; 2-(p-chloro-alpha-(2-(dimethylamino)ethyl)benzyl)pyridine maleate (1:1); chloropiril; chloroprophenpyridamine maleate; chlor-trimeton maleate; gamma-(4-chlorophenyl)-N,N-dimethyl-2-pyridinepropanamine(Z)-2-butenedioate (1:1).

$$$$
743
 

 13 13  0  0  0  0  0  0  0  0999 V2000
   -0.0996    2.0435   -1.2475 O   0  0  0  0  0  0  0  0  0  1  0  0
   -0.0659    1.3413    0.0188 S   0  0  0  0  0  0  0  0  0  2  0  0
   -0.0860    2.1348    1.2302 O   0  0  0  0  0  0  0  0  0  3  0  0
    1.3320    0.2193    0.0506 C   0  0  0  0  0  0  0  0  0  4  0  0
   -1.3802    0.1229    0.0674 C   0  0  0  0  0  0  0  0  0  5  0  0
    0.6932   -1.1407    0.0570 C   0  0  0  0  0  0  0  0  0  6  0  0
   -0.6457   -1.1880    0.0657 C   0  0  0  0  0  0  0  0  0  7  0  0
    1.9350    0.3763    0.9728 H   0  0  0  0  0  0  0  0  0  8  0  0
    1.9617    0.3600   -0.8562 H   0  0  0  0  0  0  0  0  0  9  0  0
   -2.0293    0.2175   -0.8316 H   0  0  0  0  0  0  0  0  0 10  0  0
   -1.9824    0.2375    0.9964 H   0  0  0  0  0  0  0  0  0 11  0  0
    1.3157   -2.0483    0.0573 H   0  0  0  0  0  0  0  0  0 12  0  0
   -1.2028   -2.1369    0.0735 H   0  0  0  0  0  0  0  0  0 13  0  0
  1  2  2  0  0  0  0
  2  3  2  0  0  0  0
  2  4  1  0  0  0  0
  2  5  1  0  0  0  0
  4  6  1  0  0  0  0
  4  8  1  1  0  0  0
  4  9  1  6  0  0  0
  5  7  1  0  0  0  0
  5 10  1  6  0  0  0
  5 11  1  1  0  0  0
  6  7  2  0  0  0  0
  6 12  1  0  0  0  0
  7 13  1  0  0  0  0
M  END
>  <Substance ID> (743)
743

>  <Mouse_Female_Canc> (743)
1

>  <SAL> (743)
1

>  <Rat_Male_Canc> (743)
1

>  <TD50_Rat> (743)
NP

>  <TD50_Mouse> (743)
NP

>  <Rat_Female_Canc> (743)
1

>  <Canc> (743)
1

>  <MolWeight> (743)
118.15

>  <Mouse_Male_Canc> (743)
1

>  <Mouse_Male_NTP> (743)
ND

>  <ChemName> (743)
3-Sulfolene

>  <Rat_Male_NTP> (743)
ND

>  <Reference> (743)
NTP102

>  <Formula> (743)
C4H6O2S

>  <SMILES> (743)
O=S1(=O)CC=CC1

>  <Rat_Female_NTP> (743)
ND

>  <CAS> (743)
77-79-2

>  <Mouse_Female_NTP> (743)
ND

>  <Synonyms> (743)
1-thia-3-cyclopentene 1,1-dioxide; 2,5-dihydrothiophene 1,1-dioxide; 2,5-dihydrothiophene dioxide; 2,5-dihydrothiophene sulfone; beta-sulfolene; butadiene sulfone; sulfol-3-ene; sulfolene.

$$$$
744
 

 36 38  0  0  0  0  0  0  0  0999 V2000
   41.1720  -59.1390    0.5672 C   0  0  0  0  0  0  0  0  0  0  0  0
   40.0452  -59.7222    0.8822 C   0  0  0  0  0  0  0  0  0  0  0  0
   39.8904  -61.1733    0.7586 C   0  0  0  0  0  0  0  0  0  0  0  0
   40.9170  -61.9045    0.3269 C   0  0  0  0  0  0  0  0  0  0  0  0
   42.1771  -61.2678   -0.0085 C   0  0  0  0  0  0  0  0  0  0  0  0
   42.3072  -59.9373    0.1063 C   0  0  0  0  0  0  0  0  0  0  0  0
   43.3787  -56.5562    0.2019 C   0  0  0  0  0  0  0  0  0  0  0  0
   44.1213  -57.5275   -0.3614 C   0  0  0  0  0  0  0  0  0  0  0  0
   45.4917  -57.3006   -0.7789 C   0  0  0  0  0  0  0  0  0  0  0  0
   46.0407  -56.1065   -0.6036 C   0  0  0  0  0  0  0  0  0  0  0  0
   45.2468  -55.0276    0.0111 C   0  0  0  0  0  0  0  0  0  0  0  0
   43.9863  -55.2414    0.3876 C   0  0  0  0  0  0  0  0  0  0  0  0
   37.4132  -57.2397   -1.2189 C   0  0  0  0  0  0  0  0  0  0  0  0
   38.6809  -57.4010   -0.8529 C   0  0  0  0  0  0  0  0  0  0  0  0
   39.2830  -56.5689    0.2136 C   0  0  0  0  0  0  0  0  0  0  0  0
   38.5515  -55.6277    0.8008 C   0  0  0  0  0  0  0  0  0  0  0  0
   37.1423  -55.4441    0.3768 C   0  0  0  0  0  0  0  0  0  0  0  0
   36.6079  -56.2149   -0.5730 C   0  0  0  0  0  0  0  0  0  0  0  0
   41.3269  -56.9967    0.7476 Sn  0  0  0  0  0  0  0  0  0  0  0  0
   41.3256  -55.8926   -0.9839 O   0  0  0  0  0  0  0  0  0  0  0  0
   39.2791  -59.1704    1.2118 H   0  0  0  0  0  0  0  0  0  0  0  0
   39.0231  -61.6108    0.9959 H   0  0  0  0  0  0  0  0  0  0  0  0
   40.8188  -62.8953    0.2337 H   0  0  0  0  0  0  0  0  0  0  0  0
   42.9481  -61.8203   -0.3251 H   0  0  0  0  0  0  0  0  0  0  0  0
   43.1745  -59.4947   -0.1216 H   0  0  0  0  0  0  0  0  0  0  0  0
   43.7164  -58.4319   -0.4959 H   0  0  0  0  0  0  0  0  0  0  0  0
   46.0193  -58.0403   -1.1965 H   0  0  0  0  0  0  0  0  0  0  0  0
   46.9854  -55.9395   -0.8860 H   0  0  0  0  0  0  0  0  0  0  0  0
   45.6580  -54.1262    0.1469 H   0  0  0  0  0  0  0  0  0  0  0  0
   43.4556  -54.4999    0.7982 H   0  0  0  0  0  0  0  0  0  0  0  0
   37.0166  -57.8177   -1.9320 H   0  0  0  0  0  0  0  0  0  0  0  0
   39.2380  -58.0970   -1.3060 H   0  0  0  0  0  0  0  0  0  0  0  0
   38.9451  -55.0521    1.5176 H   0  0  0  0  0  0  0  0  0  0  0  0
   36.5855  -54.7340    0.8078 H   0  0  0  0  0  0  0  0  0  0  0  0
   35.6528  -56.0878   -0.8408 H   0  0  0  0  0  0  0  0  0  0  0  0
   42.2673  -55.7414   -1.2841 H   0  0  0  0  0  0  0  0  0  0  0  0
  1  2  2  0  0  0  0
  2  3  1  0  0  0  0
  3  4  2  0  0  0  0
  4  5  1  0  0  0  0
  5  6  2  0  0  0  0
  6  1  1  0  0  0  0
  7  8  2  0  0  0  0
  8  9  1  0  0  0  0
  9 10  2  0  0  0  0
 10 11  1  0  0  0  0
 11 12  2  0  0  0  0
 12  7  1  0  0  0  0
 13 14  2  0  0  0  0
 14 15  1  0  0  0  0
 15 16  2  0  0  0  0
 16 17  1  0  0  0  0
 17 18  2  0  0  0  0
 18 13  1  0  0  0  0
 15 19  1  0  0  0  0
 19  7  1  0  0  0  0
 19 20  1  0  0  0  0
 19  1  1  0  0  0  0
  2 21  1  0  0  0  0
  3 22  1  0  0  0  0
  4 23  1  0  0  0  0
  5 24  1  0  0  0  0
  6 25  1  0  0  0  0
  8 26  1  0  0  0  0
  9 27  1  0  0  0  0
 10 28  1  0  0  0  0
 11 29  1  0  0  0  0
 12 30  1  0  0  0  0
 13 31  1  0  0  0  0
 14 32  1  0  0  0  0
 16 33  1  0  0  0  0
 17 34  1  0  0  0  0
 18 35  1  0  0  0  0
 20 36  1  0  0  0  0
M  END
>  <Substance ID> (744)
744

>  <Mouse_Female_Canc> (744)
1

>  <SAL> (744)
1

>  <Rat_Male_Canc> (744)
1

>  <TD50_Rat> (744)
NP

>  <TD50_Mouse> (744)
NP

>  <Rat_Female_Canc> (744)
1

>  <Canc> (744)
1

>  <MolWeight> (744)
367.04

>  <Mouse_Male_Canc> (744)
1

>  <Mouse_Male_NTP> (744)
ND

>  <ChemName> (744)
Triphenyltin hydroxide

>  <Rat_Male_NTP> (744)
ND

>  <Reference> (744)
NTP139

>  <Formula> (744)
C18H16OSn

>  <SMILES> (744)
O[Sn](c1ccccc1)(c2ccccc2)c3ccccc3

>  <Rat_Female_NTP> (744)
ND

>  <CAS> (744)
76-87-9

>  <Mouse_Female_NTP> (744)
ND

>  <Synonyms> (744)
Brestan R; dowco 186; Du-ter; du-ter w-50; fenolovo; Fentin hydroxide; Haitin; hydroxytriphenyltin; hydroxytriphenylstannane; K 19; oms 1017; Phenostat-A H; Stannol, triphenyl-; Super Tin; Super tin 4L; Suzu-H; Tenhide; TPTH; Tptoh; Triphenylhydroxytin; triphenylstannium hydroxide; triphenyltin oxide; Triple Tin; Tubotin; vancide ks.

$$$$
745
 

  2  1  0  0  0  0  0  0  0  0999 V2000
   43.7476  -63.8638    0.0003 Se  0  0  0  0  0  0  0  0  0  0  0  0
   45.6582  -63.8644    0.0007 S   0  0  0  0  0  0  0  0  0  0  0  0
  1  2  2  0  0  0  0
M  END
>  <Substance ID> (745)
745

>  <Mouse_Female_Canc> (745)
3

>  <SAL> (745)
3

>  <Rat_Male_Canc> (745)
3

>  <TD50_Rat> (745)
8.01

>  <TD50_Mouse> (745)
69.3

>  <Rat_Female_Canc> (745)
3

>  <Canc> (745)
3

>  <MolWeight> (745)
111.02

>  <Mouse_Male_Canc> (745)
1

>  <Mouse_Male_NTP> (745)
ND

>  <ChemName> (745)
Selenium Sulfide 

>  <Rat_Male_NTP> (745)
ND

>  <Reference> (745)
NTP194

>  <Formula> (745)
SSe

>  <SMILES> (745)
S=[Se]

>  <Rat_Female_NTP> (745)
ND

>  <CAS> (745)
7446-34-6

>  <Mouse_Female_NTP> (745)
ND

>  <Synonyms> (745)
selenium monosulfide; selsun sulfide; sulfur selenide.

$$$$
746
  

 25 22  0  0  0  0  0  0  0  0999 V2000
   40.3123  -70.9614    0.0000 C   0  0  0  0  0  0  0  0  0  0  0  0
   41.0108  -72.2547    0.0000 N   0  0  0  0  0  0  0  0  0  0  0  0
   40.2400  -73.5062    0.0003 C   0  0  0  0  0  0  0  0  0  0  0  0
   42.4416  -72.2955   -0.0004 C   0  0  0  0  0  0  0  0  0  0  0  0
   43.2622  -70.9632   -0.0007 S   0  0  0  0  0  0  0  0  0  0  0  0
   43.2832  -73.8541   -0.0003 S   0  5  0  0  0  0  0  0  0  0  0  0
   40.9830  -70.2198   -0.0002 H   0  0  0  0  0  0  0  0  0  0  0  0
   39.7391  -70.8915    0.8166 H   0  0  0  0  0  0  0  0  0  0  0  0
   39.7388  -70.8917   -0.8162 H   0  0  0  0  0  0  0  0  0  0  0  0
   40.8675  -74.2848    0.0003 H   0  0  0  0  0  0  0  0  0  0  0  0
   39.6635  -73.5434   -0.8160 H   0  0  0  0  0  0  0  0  0  0  0  0
   39.6638  -73.5432    0.8168 H   0  0  0  0  0  0  0  0  0  0  0  0
   52.1339  -70.7702   -0.0003 S   0  0  0  0  0  0  0  0  0  0  0  0
   52.8348  -72.1692   -0.0004 C   0  0  0  0  0  0  0  0  0  0  0  0
   54.2290  -72.2521   -0.0007 N   0  0  0  0  0  0  0  0  0  0  0  0
   55.0193  -71.0544   -0.0002 C   0  0  0  0  0  0  0  0  0  0  0  0
   54.8714  -73.5350   -0.0009 C   0  0  0  0  0  0  0  0  0  0  0  0
   51.8594  -73.6477    0.0004 S   0  5  0  0  0  0  0  0  0  0  0  0
   55.9899  -71.2949   -0.0004 H   0  0  0  0  0  0  0  0  0  0  0  0
   54.8099  -70.5166    0.8165 H   0  0  0  0  0  0  0  0  0  0  0  0
   54.8097  -70.5158   -0.8163 H   0  0  0  0  0  0  0  0  0  0  0  0
   55.8637  -73.4115   -0.0010 H   0  0  0  0  0  0  0  0  0  0  0  0
   54.5993  -74.0444   -0.8173 H   0  0  0  0  0  0  0  0  0  0  0  0
   54.5995  -74.0446    0.8155 H   0  0  0  0  0  0  0  0  0  0  0  0
   47.5124  -70.6917    0.0003 Pb  0  2  0  0  0  0  0  0  0  0  0  0
  1  2  1  0  0  0  0
  2  3  1  0  0  0  0
  2  4  1  0  0  0  0
  4  5  2  0  0  0  0
  4  6  1  0  0  0  0
  1  7  1  0  0  0  0
  1  8  1  0  0  0  0
  1  9  1  0  0  0  0
  3 10  1  0  0  0  0
  3 11  1  0  0  0  0
  3 12  1  0  0  0  0
 13 14  2  0  0  0  0
 14 15  1  0  0  0  0
 15 16  1  0  0  0  0
 15 17  1  0  0  0  0
 14 18  1  0  0  0  0
 16 19  1  0  0  0  0
 16 20  1  0  0  0  0
 16 21  1  0  0  0  0
 17 22  1  0  0  0  0
 17 23  1  0  0  0  0
 17 24  1  0  0  0  0
M  END
>  <Substance ID> (746)
746

>  <Mouse_Female_Canc> (746)
1

>  <SAL> (746)
3

>  <Rat_Male_Canc> (746)
1

>  <TD50_Rat> (746)
NP

>  <TD50_Mouse> (746)
NP

>  <Rat_Female_Canc> (746)
1

>  <Canc> (746)
1

>  <MolWeight> (746)
447.62

>  <Mouse_Male_Canc> (746)
1

>  <Mouse_Male_NTP> (746)
ND

>  <ChemName> (746)
Lead, bis(dimethylcarbamodithioato-S,S')-, (T-4)-

>  <Rat_Male_NTP> (746)
ND

>  <Reference> (746)
NTP151

>  <Formula> (746)
C6H12N2S4Pb 

>  <SMILES> (746)
[Pb+2].S=C([S-])N(C)C.[S-]C(=S)N(C)C

>  <Rat_Female_NTP> (746)
ND

>  <CAS> (746)
19010-66-3

>  <Mouse_Female_NTP> (746)
ND

>  <Synonyms> (746)
bis(dimethyldithiocarbamato)lead; dimethyldithiocarbamic acid, lead salt; Lead dimethyldithiocarbamate; Lead Dimethyldithiocarbamate -Arc.; Ledate; methyl ledate.

$$$$
747


 73 68  0  0  0  0  0  0  0  0999 V2000
   31.4120   -8.0025   -0.6349 C   0  0  0  0  0  0  0  0  0  1  0  0
   30.2865   -7.7280    0.3930 C   0  0  0  0  0  0  0  0  0  2  0  0
   29.0313   -8.5403    0.1839 N   0  0  0  0  0  0  0  0  0  3  0  0
   27.7288   -7.8279    0.3893 C   0  0  0  0  0  0  0  0  0  4  0  0
   26.6331   -8.1955   -0.6433 C   0  0  0  0  0  0  0  0  0  5  0  0
   29.1084  -10.0411    0.1164 C   0  0  0  0  0  0  0  0  0  6  0  0
   27.6259  -11.0361    0.1102 S   0  5  0  0  0  0  0  0  0  7  0  0
   30.4607  -10.7978    0.0949 S   0  0  0  0  0  0  0  0  0  8  0  0
   26.8522  -13.6938   -0.0072 Te  0  0  0  0  0  0  0  0  0  9  0  0
   19.9206   -8.9780   -0.6106 C   0  0  0  0  0  0  0  0  0 10  0  0
   19.9118  -10.1373    0.4156 C   0  0  0  0  0  0  0  0  0 11  0  0
   20.9974  -11.1655    0.2098 N   0  0  0  0  0  0  0  0  0 12  0  0
   20.6163  -12.5978    0.3699 C   0  0  0  0  0  0  0  0  0 13  0  0
   21.0906  -13.4845   -0.8058 C   0  0  0  0  0  0  0  0  0 14  0  0
   22.4341  -10.7510    0.1175 C   0  0  0  0  0  0  0  0  0 15  0  0
   23.7267  -11.9806    0.0708 S   0  5  0  0  0  0  0  0  0 16  0  0
   22.8701   -9.2663    0.1021 S   0  0  0  0  0  0  0  0  0 17  0  0
   32.5901  -19.0209   -0.5861 C   0  0  0  0  0  0  0  0  0 18  0  0
   32.9234  -17.8344    0.3578 C   0  0  0  0  0  0  0  0  0 19  0  0
   32.0846  -16.5966    0.1615 N   0  0  0  0  0  0  0  0  0 20  0  0
   32.7888  -15.2750    0.3728 C   0  0  0  0  0  0  0  0  0 21  0  0
   32.3791  -14.1524   -0.6108 C   0  0  0  0  0  0  0  0  0 22  0  0
   30.5860  -16.6541    0.1252 C   0  0  0  0  0  0  0  0  0 23  0  0
   29.5678  -15.2015    0.1460 S   0  5  0  0  0  0  0  0  0 24  0  0
   29.8255  -18.0427    0.1129 S   0  0  0  0  0  0  0  0  0 25  0  0
   22.5993  -19.6359   -0.6274 C   0  0  0  0  0  0  0  0  0 26  0  0
   23.7263  -19.3269    0.3873 C   0  0  0  0  0  0  0  0  0 27  0  0
   24.3926  -17.9808    0.2005 N   0  0  0  0  0  0  0  0  0 28  0  0
   25.8723  -17.9312    0.3408 C   0  0  0  0  0  0  0  0  0 29  0  0
   26.5653  -17.1095   -0.7741 C   0  0  0  0  0  0  0  0  0 30  0  0
   23.5525  -16.7356    0.1709 C   0  0  0  0  0  0  0  0  0 31  0  0
   24.3498  -15.1301    0.1589 S   0  5  0  0  0  0  0  0  0 32  0  0
   22.0232  -16.7632    0.1934 S   0  0  0  0  0  0  0  0  0 33  0  0
   32.2026   -7.4270   -0.4259 H   0  0  0  0  0  0  0  0  0  0  0  0
   31.0818   -7.7930   -1.5553 H   0  0  0  0  0  0  0  0  0  0  0  0
   31.6793   -8.9650   -0.5881 H   0  0  0  0  0  0  0  0  0  0  0  0
   30.6413   -7.9319    1.3054 H   0  0  0  0  0  0  0  0  0  0  0  0
   30.0437   -6.7595    0.3380 H   0  0  0  0  0  0  0  0  0  0  0  0
   27.3882   -8.0544    1.3018 H   0  0  0  0  0  0  0  0  0  0  0  0
   27.8972   -6.8439    0.3306 H   0  0  0  0  0  0  0  0  0  0  0  0
   25.7987   -7.6827   -0.4414 H   0  0  0  0  0  0  0  0  0  0  0  0
   26.4419   -9.1757   -0.5923 H   0  0  0  0  0  0  0  0  0  0  0  0
   26.9507   -7.9656   -1.5632 H   0  0  0  0  0  0  0  0  0  0  0  0
   19.1746   -8.3446   -0.4050 H   0  0  0  0  0  0  0  0  0  0  0  0
   19.7995   -9.3470   -1.5321 H   0  0  0  0  0  0  0  0  0  0  0  0
   20.7933   -8.4926   -0.5583 H   0  0  0  0  0  0  0  0  0  0  0  0
   20.0218   -9.7461    1.3293 H   0  0  0  0  0  0  0  0  0  0  0  0
   19.0277  -10.6008    0.3551 H   0  0  0  0  0  0  0  0  0  0  0  0
   21.0247  -12.9436    1.2147 H   0  0  0  0  0  0  0  0  0  0  0  0
   19.6200  -12.6573    0.4321 H   0  0  0  0  0  0  0  0  0  0  0  0
   20.8086  -14.4304   -0.6455 H   0  0  0  0  0  0  0  0  0  0  0  0
   22.0873  -13.4417   -0.8753 H   0  0  0  0  0  0  0  0  0  0  0  0
   20.6830  -13.1555   -1.6577 H   0  0  0  0  0  0  0  0  0  0  0  0
   33.1949  -19.7905   -0.3812 H   0  0  0  0  0  0  0  0  0  0  0  0
   32.7212  -18.7385   -1.5364 H   0  0  0  0  0  0  0  0  0  0  0  0
   31.6394  -19.2992   -0.4496 H   0  0  0  0  0  0  0  0  0  0  0  0
   32.7985  -18.1453    1.3000 H   0  0  0  0  0  0  0  0  0  0  0  0
   33.8807  -17.5844    0.2128 H   0  0  0  0  0  0  0  0  0  0  0  0
   32.5893  -14.9620    1.3014 H   0  0  0  0  0  0  0  0  0  0  0  0
   33.7723  -15.4284    0.2763 H   0  0  0  0  0  0  0  0  0  0  0  0
   32.8909  -13.3199   -0.3991 H   0  0  0  0  0  0  0  0  0  0  0  0
   31.3994  -13.9724   -0.5225 H   0  0  0  0  0  0  0  0  0  0  0  0
   32.5819  -14.4387   -1.5473 H   0  0  0  0  0  0  0  0  0  0  0  0
   22.2148  -20.5386   -0.4345 H   0  0  0  0  0  0  0  0  0  0  0  0
   22.9729  -19.6246   -1.5549 H   0  0  0  0  0  0  0  0  0  0  0  0
   21.8810  -18.9445   -0.5493 H   0  0  0  0  0  0  0  0  0  0  0  0
   23.3342  -19.3555    1.3067 H   0  0  0  0  0  0  0  0  0  0  0  0
   24.4264  -20.0357    0.3007 H   0  0  0  0  0  0  0  0  0  0  0  0
   26.0938  -17.5178    1.2240 H   0  0  0  0  0  0  0  0  0  0  0  0
   26.2254  -18.8663    0.3120 H   0  0  0  0  0  0  0  0  0  0  0  0
   27.5542  -17.1132   -0.6258 H   0  0  0  0  0  0  0  0  0  0  0  0
   26.2291  -16.1679   -0.7528 H   0  0  0  0  0  0  0  0  0  0  0  0
   26.3608  -17.5160   -1.6646 H   0  0  0  0  0  0  0  0  0  0  0  0
  1  2  1  0  0  0  0
  2  3  1  0  0  0  0
  3  4  1  0  0  0  0
  3  6  1  0  0  0  0
  4  5  1  0  0  0  0
  6  7  1  0  0  0  0
  6  8  2  0  0  0  0
 10 11  1  0  0  0  0
 11 12  1  0  0  0  0
 12 13  1  0  0  0  0
 12 15  1  0  0  0  0
 13 14  1  0  0  0  0
 15 16  1  0  0  0  0
 15 17  2  0  0  0  0
 18 19  1  0  0  0  0
 19 20  1  0  0  0  0
 20 21  1  0  0  0  0
 20 23  1  0  0  0  0
 21 22  1  0  0  0  0
 23 24  1  0  0  0  0
 23 25  2  0  0  0  0
 26 27  1  0  0  0  0
 27 28  1  0  0  0  0
 28 29  1  0  0  0  0
 28 31  1  0  0  0  0
 29 30  1  0  0  0  0
 31 32  1  0  0  0  0
 31 33  2  0  0  0  0
  1 34  1  0  0  0  0
  1 35  1  0  0  0  0
  1 36  1  0  0  0  0
  2 37  1  0  0  0  0
  2 38  1  0  0  0  0
  4 39  1  0  0  0  0
  4 40  1  0  0  0  0
  5 41  1  0  0  0  0
  5 42  1  0  0  0  0
  5 43  1  0  0  0  0
 10 44  1  0  0  0  0
 10 45  1  0  0  0  0
 10 46  1  0  0  0  0
 11 47  1  0  0  0  0
 11 48  1  0  0  0  0
 13 49  1  0  0  0  0
 13 50  1  0  0  0  0
 14 51  1  0  0  0  0
 14 52  1  0  0  0  0
 14 53  1  0  0  0  0
 18 54  1  0  0  0  0
 18 55  1  0  0  0  0
 18 56  1  0  0  0  0
 19 57  1  0  0  0  0
 19 58  1  0  0  0  0
 21 59  1  0  0  0  0
 21 60  1  0  0  0  0
 22 61  1  0  0  0  0
 22 62  1  0  0  0  0
 22 63  1  0  0  0  0
 26 64  1  0  0  0  0
 26 65  1  0  0  0  0
 26 66  1  0  0  0  0
 27 67  1  0  0  0  0
 27 68  1  0  0  0  0
 29 69  1  0  0  0  0
 29 70  1  0  0  0  0
 30 71  1  0  0  0  0
 30 72  1  0  0  0  0
 30 73  1  0  0  0  0
M  END
>  <Substance ID> (747)
747

>  <Mouse_Female_Canc> (747)
2

>  <SAL> (747)
1

>  <Rat_Male_Canc> (747)
2

>  <TD50_Rat> (747)
NP

>  <TD50_Mouse> (747)
NP

>  <Rat_Female_Canc> (747)
1

>  <Canc> (747)
2

>  <MolWeight> (747)
720.65

>  <Mouse_Male_Canc> (747)
2

>  <Mouse_Male_NTP> (747)
ND

>  <ChemName> (747)
Ethyl tellurac

>  <Rat_Male_NTP> (747)
ND

>  <Reference> (747)
NTP152

>  <Formula> (747)
C20H40N4S8Te

>  <SMILES> (747)
[Te+4].S=C([S-])N(CC)CC.CCN(CC)C([S-])=S.CCN(CC)C([S-])=S.CCN(CC)C([S-])=S

>  <Rat_Female_NTP> (747)
ND

>  <CAS> (747)
20941-65-5

>  <Mouse_Female_NTP> (747)
ND

>  <Synonyms> (747)
diethyldithiocarbamic acid tellurium salt; tellurac; tellurium diethyldithiocarbamate; Tellurium (IV) diethyldithiocarbamate; tellurium, tetrakis(diethyldithiocarbamate)-; Tellurium, tetrakis(diethylcarbamodithioato-S,S')-, (DD-8-1,1,1'',1'',1',1',1''',1''')-; tetrakis(diethylcarbamodithioato-S,S')tellurium.

$$$$
748
 

 26 29  0  0  0  0  0  0  0  0999 V2000
    0.1183    0.9568    0.3579 C   0  0  2  0  0  0  0  0  0  1  0  0
   -0.0701   -0.8889   -0.8926 C   0  0  2  0  0  0  0  0  0  2  0  0
    0.0114    0.6646   -1.1944 C   0  0  2  0  0  0  0  0  0  3  0  0
    1.2819    0.0833    0.6434 C   0  0  0  0  0  0  0  0  0  4  0  0
    1.1716   -0.9982   -0.0900 C   0  0  0  0  0  0  0  0  0  5  0  0
   -1.1202    0.2055    1.0901 C   0  0  2  0  0  0  0  0  0  6  0  0
   -1.2534   -1.1235    0.1930 C   0  0  2  0  0  0  0  0  0  7  0  0
   -2.6221    0.7347    1.1137 C   0  0  2  0  0  0  0  0  0  8  0  0
   -2.8092   -1.1362   -0.1437 C   0  0  2  0  0  0  0  0  0  9  0  0
   -3.3632   -0.2922    1.9085 C   0  0  0  0  0  0  0  0  0 10  0  0
   -3.4722   -1.3878    1.1728 C   0  0  0  0  0  0  0  0  0 11  0  0
   -3.1675    0.3471   -0.2648 C   0  0  0  0  0  0  0  0  0 12  0  0
   -0.1039   -2.0187   -2.2485 Cl  0  0  0  0  0  0  0  0  0 13  0  0
    0.3693    2.6200    0.8937 Cl  0  0  0  0  0  0  0  0  0 14  0  0
   -1.2845    1.4315   -2.1252 Cl  0  0  0  0  0  0  0  0  0 15  0  0
    1.5053    1.0836   -2.0373 Cl  0  0  0  0  0  0  0  0  0 16  0  0
    2.2845   -2.3185   -0.1221 Cl  0  0  0  0  0  0  0  0  0 17  0  0
    2.5660    0.4343    1.7439 Cl  0  0  0  0  0  0  0  0  0 18  0  0
   -0.8647    0.2356    2.0564 H   0  0  0  0  0  0  0  0  0  0  0  0
   -1.0927   -2.0593    0.5068 H   0  0  0  0  0  0  0  0  0  0  0  0
   -2.6908    1.6900    1.4012 H   0  0  0  0  0  0  0  0  0  0  0  0
   -3.0346   -1.7442   -0.9050 H   0  0  0  0  0  0  0  0  0  0  0  0
   -3.7161   -0.1723    2.8364 H   0  0  0  0  0  0  0  0  0  0  0  0
   -3.9208   -2.2375    1.4500 H   0  0  0  0  0  0  0  0  0  0  0  0
   -4.1512    0.5040   -0.3523 H   0  0  0  0  0  0  0  0  0  0  0  0
   -2.6887    0.8031   -1.0151 H   0  0  0  0  0  0  0  0  0  0  0  0
  2  3  1  0  0  0  0
  3  1  1  0  0  0  0
  4  1  1  0  0  0  0
  5  4  2  0  0  0  0
  6  1  1  0  0  0  0
  7  6  1  0  0  0  0
  8  6  1  0  0  0  0
  9  7  1  0  0  0  0
 10  8  1  0  0  0  0
 11 10  2  0  0  0  0
 12  8  1  0  0  0  0
 13  2  1  0  0  0  0
 14  1  1  0  0  0  0
 15  3  1  0  0  0  0
 16  3  1  0  0  0  0
 17  5  1  0  0  0  0
 18  4  1  0  0  0  0
  2  7  1  0  0  0  0
  5  2  1  0  0  0  0
 12  9  1  0  0  0  0
 11  9  1  0  0  0  0
  6 19  1  0  0  0  0
  7 20  1  0  0  0  0
  8 21  1  0  0  0  0
  9 22  1  0  0  0  0
 10 23  1  0  0  0  0
 11 24  1  0  0  0  0
 12 25  1  0  0  0  0
 12 26  1  0  0  0  0
M  END
>  <Substance ID> (748)
748

>  <Mouse_Female_Canc> (748)
3

>  <SAL> (748)
1

>  <Rat_Male_Canc> (748)
1

>  <TD50_Rat> (748)
NP

>  <TD50_Mouse> (748)
1.27

>  <Rat_Female_Canc> (748)
1

>  <Canc> (748)
3

>  <MolWeight> (748)
364.91

>  <Mouse_Male_Canc> (748)
3

>  <Mouse_Male_NTP> (748)
ND

>  <ChemName> (748)
Aldrin

>  <Rat_Male_NTP> (748)
ND

>  <Reference> (748)
CPDB

>  <Formula> (748)
C12H8Cl6

>  <SMILES> (748)
Cl[C@]12C3C(C4C=CC3C4)[C@](C1(Cl)Cl)(Cl)C(=C2Cl)Cl

>  <Rat_Female_NTP> (748)
ND

>  <CAS> (748)
309-00-2

>  <Mouse_Female_NTP> (748)
ND

>  <Synonyms> (748)
1,2,3,4,10,10-hexachloro-1,4,4a,5,8,8a-hexahydro-1,4:5,8-Dimethanonaphthalene; 1,2,3,4,10,10-Hexachloro-1,4,4a,5,8,8a-hexahydro-endo-1,4-exo-5,8-dimethanonaphthalene; Seedrin; Tatuzinho; Tipula; 1,2,3,4,10,10-hexachloro-1,4,4a,5,8,8a-hexahydro-exo-1,4-endo-5,8-dimethanonaphthalene; 1,4:5,8-Dimethanonaphthalene, 1,2,3,4,10,10-hexachloro-1,4,4a,5,8,8a-hexahydro-(1alpha,4alpha,4abeta,5alpha,8alpha,8abeta)-; 1,4:5,8-Dimethanonaphthalene, 1,2,3,4,10,10-hexachloro-, 1,4,4a,5,8,8a-hexahydro-, endo,exo-; (1alpha,4alpha,4abeta,5alpha,8alpha,8abeta)-1,2,3,4,10,10-hexachloro-1,4,4a,5,8,8a-hexahydro-1,4:5,8-Dimethanonaphthalene; 2,7:3,6-Dimethanonaphthalene, 1,2,3,4,10,10-hexachloro-1,4,4a,5,8,8a-hexahydro-, (1alpha,4alpha,4abeta,5alpha,8alpha,8abeta)-; Aldocit; Aldrex; Aldrin, liquid; aldrin mixture; Aldrin-R; Aldrin, solid; Aldrite; Aldrosol; compd 118; drinox; hexachlorohexahydro-endo-exo-dimethanonaphthalene; HHDM; HHDN; HHPN; Kortofin; octalene compound 118; OMS-194.

$$$$
749
 

 23 25  0  0  0  0  0  0  0  0999 V2000
    5.3172   -4.6709   -0.0053 C   0  0  0  0  0  0  0  0  0  0  0  0
    6.6121   -2.1439    0.0026 C   0  0  0  0  0  0  0  0  0  0  0  0
    5.1340   -2.2269    0.0016 C   0  0  0  0  0  0  0  0  0  0  0  0
    4.5208   -3.4221   -0.0046 C   0  0  0  0  0  0  0  0  0  0  0  0
    7.5369   -6.9532    0.0069 C   0  0  0  0  0  0  0  0  0  0  0  0
    8.6843   -7.6345    0.0087 C   0  0  0  0  0  0  0  0  0  0  0  0
    9.9907   -6.8962    0.0013 C   0  0  0  0  0  0  0  0  0  0  0  0
   10.0235   -5.6170   -0.0034 N   0  0  0  0  0  0  0  0  0  0  0  0
   11.1874   -7.6110   -0.0018 N   0  0  0  0  0  0  0  0  0  0  0  0
    7.2786   -3.2888   -0.0000 C   0  0  0  0  0  0  0  0  0  0  0  0
    6.6351   -4.5328   -0.0016 C   0  0  0  0  0  0  0  0  0  0  0  0
    7.6574   -5.5241    0.0008 C   0  0  0  0  0  0  0  0  0  0  0  0
    8.8306   -4.9136   -0.0022 C   0  0  0  0  0  0  0  0  0  0  0  0
    8.6718   -3.4915   -0.0027 N   0  0  0  0  0  0  0  0  0  0  0  0
    4.8829   -5.5716   -0.0085 H   0  0  0  0  0  0  0  0  0  0  0  0
    7.0860   -1.2633    0.0052 H   0  0  0  0  0  0  0  0  0  0  0  0
    4.5889   -1.3885    0.0054 H   0  0  0  0  0  0  0  0  0  0  0  0
    3.5219   -3.4690   -0.0086 H   0  0  0  0  0  0  0  0  0  0  0  0
    6.6478   -7.4109    0.0095 H   0  0  0  0  0  0  0  0  0  0  0  0
    8.6736   -8.6345    0.0150 H   0  0  0  0  0  0  0  0  0  0  0  0
   12.0607   -7.1240   -0.0068 H   0  0  0  0  0  0  0  0  0  0  0  0
   11.1725   -8.6109    0.0009 H   0  0  0  0  0  0  0  0  0  0  0  0
    9.3906   -2.7963   -0.0046 H   0  0  0  0  0  0  0  0  0  0  0  0
  1 11  2  0  0  0  0
  1  4  1  0  0  0  0
 10  2  2  0  0  0  0
  2  3  1  0  0  0  0
  3  4  2  0  0  0  0
 13  8  1  0  0  0  0
 12  5  1  0  0  0  0
  5  6  2  0  0  0  0
  6  7  1  0  0  0  0
  7  8  2  0  0  0  0
  7  9  1  0  0  0  0
 10 11  1  0  0  0  0
 11 12  1  0  0  0  0
 12 13  2  0  0  0  0
 13 14  1  0  0  0  0
 14 10  1  0  0  0  0
  1 15  1  0  0  0  0
  2 16  1  0  0  0  0
  3 17  1  0  0  0  0
  4 18  1  0  0  0  0
  5 19  1  0  0  0  0
  6 20  1  0  0  0  0
  9 21  1  0  0  0  0
  9 22  1  0  0  0  0
 14 23  1  0  0  0  0
M  END
>  <Substance ID> (749)
749

>  <Mouse_Female_Canc> (749)
3

>  <SAL> (749)
3

>  <Rat_Male_Canc> (749)
ND

>  <TD50_Rat> (749)
ND

>  <TD50_Mouse> (749)
49.8

>  <Rat_Female_Canc> (749)
ND

>  <Canc> (749)
3

>  <MolWeight> (749)
183.21

>  <Mouse_Male_Canc> (749)
3

>  <Mouse_Male_NTP> (749)
ND

>  <ChemName> (749)
A-alpha-C

>  <Rat_Male_NTP> (749)
ND

>  <Reference> (749)
CPDB

>  <Formula> (749)
C11H9N3

>  <SMILES> (749)
n2c(ccc3c1c(cccc1)nc23)N

>  <Rat_Female_NTP> (749)
ND

>  <CAS> (749)
26148-68-5

>  <Mouse_Female_NTP> (749)
ND

>  <Synonyms> (749)
2-Amino-9H-pyrido[2,3-b]indole; Ac; Amino-alpha-carboline.

$$$$
750
  

 21 20  0  0  0  0  0  0  0  0999 V2000
    3.7287  -26.5196   -0.0009 C   0  0  0  0  0  0  0  0  0  0  0  0
    4.9636  -25.5984    0.0004 C   0  0  0  0  0  0  0  0  0  0  0  0
    6.2145  -26.4795   -0.0027 C   0  0  0  0  0  0  0  0  0  0  0  0
    7.5048  -25.6337    0.0002 C   0  0  0  0  0  0  0  0  0  0  0  0
    8.7914  -26.4390   -0.0012 N   0  0  0  0  0  0  0  0  0  0  0  0
   10.0329  -25.7225    0.0021 C   0  0  0  0  0  0  0  0  0  0  0  0
   11.2673  -26.4478    0.0032 N   0  0  0  0  0  0  0  0  0  0  0  0
    8.8700  -27.8453   -0.0008 N   0  0  0  0  0  0  0  0  0  0  0  0
    7.9494  -28.5779   -0.0012 O   0  0  0  0  0  0  0  0  0  0  0  0
   10.0421  -24.4858    0.0037 O   0  0  0  0  0  0  0  0  0  0  0  0
    2.8975  -25.9636    0.0011 H   0  0  0  0  0  0  0  0  0  0  0  0
    3.7435  -27.0990    0.8140 H   0  0  0  0  0  0  0  0  0  0  0  0
    3.7423  -27.0949   -0.8188 H   0  0  0  0  0  0  0  0  0  0  0  0
    4.9552  -25.0192   -0.8148 H   0  0  0  0  0  0  0  0  0  0  0  0
    4.9564  -25.0233    0.8185 H   0  0  0  0  0  0  0  0  0  0  0  0
    6.2049  -27.0594    0.8119 H   0  0  0  0  0  0  0  0  0  0  0  0
    6.2048  -27.0537   -0.8214 H   0  0  0  0  0  0  0  0  0  0  0  0
    7.4992  -25.0545   -0.8150 H   0  0  0  0  0  0  0  0  0  0  0  0
    7.4983  -25.0587    0.8183 H   0  0  0  0  0  0  0  0  0  0  0  0
   12.1371  -25.9545    0.0055 H   0  0  0  0  0  0  0  0  0  0  0  0
   11.2597  -27.4478    0.0018 H   0  0  0  0  0  0  0  0  0  0  0  0
  1  2  1  0  0  0  0
  2  3  1  0  0  0  0
  3  4  1  0  0  0  0
  4  5  1  0  0  0  0
  5  6  1  0  0  0  0
  6  7  1  0  0  0  0
  5  8  1  0  0  0  0
  8  9  2  0  0  0  0
  6 10  2  0  0  0  0
  1 11  1  0  0  0  0
  1 12  1  0  0  0  0
  1 13  1  0  0  0  0
  2 14  1  0  0  0  0
  2 15  1  0  0  0  0
  3 16  1  0  0  0  0
  3 17  1  0  0  0  0
  4 18  1  0  0  0  0
  4 19  1  0  0  0  0
  7 20  1  0  0  0  0
  7 21  1  0  0  0  0
M  END
>  <Substance ID> (750)
750

>  <Mouse_Female_Canc> (750)
ND

>  <SAL> (750)
3

>  <Rat_Male_Canc> (750)
3

>  <TD50_Rat> (750)
0.517

>  <TD50_Mouse> (750)
ND

>  <Rat_Female_Canc> (750)
3

>  <Canc> (750)
3

>  <MolWeight> (750)
145.16

>  <Mouse_Male_Canc> (750)
ND

>  <Mouse_Male_NTP> (750)
ND

>  <ChemName> (750)
N-n-butyl-N-nitrosourea

>  <Rat_Male_NTP> (750)
ND

>  <Reference> (750)
CPDB

>  <Formula> (750)
C5H11N3O2

>  <SMILES> (750)
O=C(N(CCCC)N=O)N

>  <Rat_Female_NTP> (750)
ND

>  <CAS> (750)
869-01-2

>  <Mouse_Female_NTP> (750)
ND

>  <Synonyms> (750)
1-Butyl-1-nitrosourea; BNU; n-Butylnitrosourea.

$$$$
751
 

 28 29  0  0  0  0  0  0  0  0999 V2000
    6.5071  -39.4550    0.3383 C   0  0  0  0  0  0  0  0  0  0  0  0
    6.4418  -40.9077    0.2810 C   0  0  0  0  0  0  0  0  0  0  0  0
    7.5289  -41.5987   -0.0382 C   0  0  0  0  0  0  0  0  0  0  0  0
    8.7814  -40.9048   -0.3398 C   0  0  0  0  0  0  0  0  0  0  0  0
    8.8753  -39.5667   -0.2915 C   0  0  0  0  0  0  0  0  0  0  0  0
    7.6508  -38.8288    0.0738 C   0  0  0  0  0  0  0  0  0  0  0  0
   10.2320  -38.7848   -0.6511 C   0  0  0  0  0  0  0  0  0  0  0  0
   11.6059  -39.5560   -0.2978 C   0  0  0  0  0  0  0  0  0  0  0  0
   11.7425  -41.0375   -0.3562 C   0  0  0  0  0  0  0  0  0  0  0  0
   12.9022  -41.6382   -0.0893 C   0  0  0  0  0  0  0  0  0  0  0  0
   14.0690  -40.8486    0.2607 C   0  0  0  0  0  0  0  0  0  0  0  0
   13.9731  -39.5236    0.3202 C   0  0  0  0  0  0  0  0  0  0  0  0
   12.6941  -38.8658    0.0291 C   0  0  0  0  0  0  0  0  0  0  0  0
   15.5767  -41.6261    0.5940 Cl  0  0  0  0  0  0  0  0  0  0  0  0
   10.2255  -37.2209   -0.2287 C   0  0  0  0  0  0  0  0  0  0  0  0
   11.6206  -36.3328   -0.8836 Cl  0  0  0  0  0  0  0  0  0  0  0  0
    8.8209  -36.3512   -0.8824 Cl  0  0  0  0  0  0  0  0  0  0  0  0
   10.2252  -37.0873    1.5363 Cl  0  0  0  0  0  0  0  0  0  0  0  0
    4.9591  -41.7268    0.6249 Cl  0  0  0  0  0  0  0  0  0  0  0  0
    5.6919  -38.9271    0.5767 H   0  0  0  0  0  0  0  0  0  0  0  0
    7.4920  -42.5975   -0.0726 H   0  0  0  0  0  0  0  0  0  0  0  0
    9.5880  -41.4411   -0.5884 H   0  0  0  0  0  0  0  0  0  0  0  0
    7.6814  -37.8305    0.1240 H   0  0  0  0  0  0  0  0  0  0  0  0
   10.2285  -38.7864   -1.6511 H   0  0  0  0  0  0  0  0  0  0  0  0
   10.9479  -41.5933   -0.6007 H   0  0  0  0  0  0  0  0  0  0  0  0
   12.9686  -42.6352   -0.1304 H   0  0  0  0  0  0  0  0  0  0  0  0
   14.7731  -38.9751    0.5635 H   0  0  0  0  0  0  0  0  0  0  0  0
   12.6394  -37.8685    0.0782 H   0  0  0  0  0  0  0  0  0  0  0  0
  1  2  1  0  0  0  0
  1  6  2  0  0  0  0
  2  3  2  0  0  0  0
  3  4  1  0  0  0  0
  4  5  2  0  0  0  0
  5  6  1  0  0  0  0
  5  7  1  0  0  0  0
  7  8  1  0  0  0  0
  8  9  1  0  0  0  0
  8 13  2  0  0  0  0
  9 10  2  0  0  0  0
 10 11  1  0  0  0  0
 11 12  2  0  0  0  0
 12 13  1  0  0  0  0
 11 14  1  0  0  0  0
  7 15  1  0  0  0  0
 15 16  1  0  0  0  0
 15 17  1  0  0  0  0
 15 18  1  0  0  0  0
  2 19  1  0  0  0  0
  1 20  1  0  0  0  0
  3 21  1  0  0  0  0
  4 22  1  0  0  0  0
  6 23  1  0  0  0  0
  7 24  1  0  0  0  0
  9 25  1  0  0  0  0
 10 26  1  0  0  0  0
 12 27  1  0  0  0  0
 13 28  1  0  0  0  0
M  END
>  <Substance ID> (751)
751

>  <Mouse_Female_Canc> (751)
3

>  <SAL> (751)
1

>  <Rat_Male_Canc> (751)
3

>  <TD50_Rat> (751)
84.7

>  <TD50_Mouse> (751)
12.8

>  <Rat_Female_Canc> (751)
3

>  <Canc> (751)
3

>  <MolWeight> (751)
354.49

>  <Mouse_Male_Canc> (751)
3

>  <Mouse_Male_NTP> (751)
ND

>  <ChemName> (751)
DDT

>  <Rat_Male_NTP> (751)
ND

>  <Reference> (751)
CPDB

>  <Formula> (751)
C14H9Cl5

>  <SMILES> (751)
ClC(C(C1=CC=C(C=C1)Cl)C2=CC=C(C=C2)Cl)(Cl)Cl

>  <Rat_Female_NTP> (751)
ND

>  <CAS> (751)
50-29-3

>  <Mouse_Female_NTP> (751)
ND

>  <Synonyms> (751)
1,1,1-Trichloro-2,2-bis(p-chlorophenyl)ethane; 1,1,1-Trichlorobis(chlorophenyl)ethane; bovidermol; chlorophenothane; chlorophenotoxum; Citox; clofenotane; dedelo; deoval; Detox; detoxan; DNSBP; Dykol; estonate; genitox; gesafid; Gesapon; Gesarex; Gesarol; Geusapon; guesapon; guesarol; Gyron; havero-extra; hildit; ivoran; ixodex; kopsol; micro ddt 75; mutoxin; neocid; OMS 16; PEB1; pentachlorin; pentech; ppzeidan; R50; rukseam; santobane; tech ddt; zeidane; zerdane; 1,1'-(2,2,2-trichloroethylidene)bis[4-chlorobenzene]; 1,1-bis(p-chlorophenyl)-2,2,2-trichloroethane; 2,2,2-trichlorobis(4-chlorophenyl)ethane; 2,2-bis(p-chlorophenyl)-1,1,1-trichloroethane; 4,4'-Dichlorodiphenyltrichloroethane; p,p'-Dichlorodiphenyltrichloroethane (DDT); p,p-DDT; 4,4'-DDT; para,para'-DDT; p,p'-DDT; p,p'-DDT~p,p'-Dichloro-1,1-diphenyl-2,2,2-trichloroethane; parachlorocidum; alpha,alpha-bis(p-chlorophenyl)-beta,beta,beta-trichlorethane; Agritan; anofex; arkotine; azotox; Bis(p-chlorophenyl)-2,2,2-trichloroethane; didigam; didimac; dibovan; Dichlorodiphenyltrichloroethane; Dicophane; bosan supra.

$$$$
752
 

 37 38  0  0  0  0  0  0  0  0999 V2000
   12.8168  -48.6517    0.0180 C   0  0  0  0  0  0  0  0  0  0  0  0
   12.2185  -49.8497    0.0482 C   0  0  0  0  0  0  0  0  0  0  0  0
   13.0812  -51.0436    0.0585 C   0  0  0  0  0  0  0  0  0  0  0  0
   14.4101  -50.9227    0.0375 C   0  0  0  0  0  0  0  0  0  0  0  0
   15.0333  -49.5994    0.0047 C   0  0  0  0  0  0  0  0  0  0  0  0
   14.2678  -48.5149   -0.0040 C   0  0  0  0  0  0  0  0  0  0  0  0
    9.7675  -49.0121    0.0462 N   0  0  0  0  0  0  0  0  0  0  0  0
    8.4955  -49.5799    0.0465 C   0  0  0  0  0  0  0  0  0  0  0  0
    8.5902  -50.9353    0.0677 C   0  0  0  0  0  0  0  0  0  0  0  0
   10.0524  -51.2266    0.0918 C   0  0  0  0  0  0  0  0  0  0  0  0
   10.7436  -49.9979    0.0659 N   0  0  0  0  0  0  0  0  0  0  0  0
    5.1863  -53.9823    1.1875 O   0  5  0  0  0  0  0  0  0  0  0  0
    5.0282  -53.0551   -0.2153 S   0  0  0  0  0  0  0  0  0  0  0  0
    3.6046  -52.5546   -0.3536 O   0  0  0  0  0  0  0  0  0  0  0  0
    5.4023  -53.8730   -1.4355 O   0  0  0  0  0  0  0  0  0  0  0  0
    6.1122  -51.6252   -0.0838 C   0  0  0  0  0  0  0  0  0  0  0  0
    7.5176  -51.9632    0.0646 N   0  0  0  0  0  0  0  0  0  0  0  0
    7.8556  -53.3544    0.1940 C   0  0  0  0  0  0  0  0  0  0  0  0
   10.5696  -52.3485    0.1140 O   0  0  0  0  0  0  0  0  0  0  0  0
    7.2681  -48.6755    0.0246 C   0  0  0  0  0  0  0  0  0  0  0  0
    9.9253  -47.5718    0.0189 C   0  0  0  0  0  0  0  0  0  0  0  0
   12.2515  -47.8269    0.0104 H   0  0  0  0  0  0  0  0  0  0  0  0
   12.6671  -51.9535    0.0814 H   0  0  0  0  0  0  0  0  0  0  0  0
   14.9836  -51.7418    0.0441 H   0  0  0  0  0  0  0  0  0  0  0  0
   16.0294  -49.5125   -0.0111 H   0  0  0  0  0  0  0  0  0  0  0  0
   14.6855  -47.6065   -0.0255 H   0  0  0  0  0  0  0  0  0  0  0  0
    6.0069  -51.0733   -0.9111 H   0  0  0  0  0  0  0  0  0  0  0  0
    5.8315  -51.0896    0.7127 H   0  0  0  0  0  0  0  0  0  0  0  0
    8.8465  -53.4498    0.2884 H   0  0  0  0  0  0  0  0  0  0  0  0
    7.5496  -53.8493   -0.6194 H   0  0  0  0  0  0  0  0  0  0  0  0
    7.4062  -53.7333    1.0030 H   0  0  0  0  0  0  0  0  0  0  0  0
    6.4401  -49.2362    0.0277 H   0  0  0  0  0  0  0  0  0  0  0  0
    7.2844  -48.1106   -0.8005 H   0  0  0  0  0  0  0  0  0  0  0  0
    7.2736  -48.0856    0.8321 H   0  0  0  0  0  0  0  0  0  0  0  0
   10.8986  -47.3425    0.0227 H   0  0  0  0  0  0  0  0  0  0  0  0
    9.4861  -47.1726    0.8237 H   0  0  0  0  0  0  0  0  0  0  0  0
    9.5002  -47.2051   -0.8087 H   0  0  0  0  0  0  0  0  0  0  0  0
  1  2  2  0  0  0  0
  1  6  1  0  0  0  0
  2  3  1  0  0  0  0
  3  4  2  0  0  0  0
  4  5  1  0  0  0  0
  5  6  2  0  0  0  0
  7  8  1  0  0  0  0
  8  9  2  0  0  0  0
  9 10  1  0  0  0  0
 10 11  1  0  0  0  0
 11  7  1  0  0  0  0
 12 13  1  0  0  0  0
 13 14  2  0  0  0  0
 13 15  2  0  0  0  0
 13 16  1  0  0  0  0
 16 17  1  0  0  0  0
 17 18  1  0  0  0  0
 17  9  1  0  0  0  0
 10 19  2  0  0  0  0
  8 20  1  0  0  0  0
  7 21  1  0  0  0  0
 11  2  1  0  0  0  0
  1 22  1  0  0  0  0
  3 23  1  0  0  0  0
  4 24  1  0  0  0  0
  5 25  1  0  0  0  0
  6 26  1  0  0  0  0
 16 27  1  0  0  0  0
 16 28  1  0  0  0  0
 18 29  1  0  0  0  0
 18 30  1  0  0  0  0
 18 31  1  0  0  0  0
 20 32  1  0  0  0  0
 20 33  1  0  0  0  0
 20 34  1  0  0  0  0
 21 35  1  0  0  0  0
 21 36  1  0  0  0  0
 21 37  1  0  0  0  0
M  END
>  <Substance ID> (752)
752

>  <Mouse_Female_Canc> (752)
3

>  <SAL> (752)
3

>  <Rat_Male_Canc> (752)
1

>  <TD50_Rat> (752)
NP

>  <TD50_Mouse> (752)
630

>  <Rat_Female_Canc> (752)
1

>  <Canc> (752)
3

>  <MolWeight> (752)
333.34

>  <Mouse_Male_Canc> (752)
3

>  <Mouse_Male_NTP> (752)
ND

>  <ChemName> (752)
Dipyrone

>  <Rat_Male_NTP> (752)
ND

>  <Reference> (752)
CPDB

>  <Formula> (752)
C13H16N3O4SNa

>  <SMILES> (752)
N1(C2=CC=CC=C2)C(C(N(CS(=O)(=O)[O-])C)=C(N1C)C)=O.[Na+]

>  <Rat_Female_NTP> (752)
ND

>  <CAS> (752)
68-89-3

>  <Mouse_Female_NTP> (752)
ND

>  <Synonyms> (752)
Sodium [(2,3-dihydro-1,5-dimethyl-3-oxo-2-phenyl-1H-pyrazol-4-yl)methylamino]methanesulfonate; Metamizole sodium; Sulpyrin.

$$$$
753
  

 23 23  0  0  0  0  0  0  0  0999 V2000
    7.5043  -63.8180   -0.0034 C   0  0  0  0  0  0  0  0  0  0  0  0
    8.8278  -63.6902   -0.0039 C   0  0  0  0  0  0  0  0  0  0  0  0
    9.4419  -62.3538   -0.0000 C   0  0  0  0  0  0  0  0  0  0  0  0
    8.6676  -61.2697    0.0023 C   0  0  0  0  0  0  0  0  0  0  0  0
    7.2089  -61.4143    0.0024 C   0  0  0  0  0  0  0  0  0  0  0  0
    6.6570  -62.6288    0.0005 C   0  0  0  0  0  0  0  0  0  0  0  0
    3.1721  -61.3579    0.0005 C   0  0  0  0  0  0  0  0  0  0  0  0
    4.5005  -61.4418    0.0001 C   0  0  0  0  0  0  0  0  0  0  0  0
    5.1635  -62.7871    0.0016 C   0  0  0  0  0  0  0  0  0  0  0  0
   10.8330  -62.2155    0.0012 O   0  0  0  0  0  0  0  0  0  0  0  0
   11.4610  -63.5054   -0.0007 C   0  0  0  0  0  0  0  0  0  0  0  0
    7.0895  -64.7279   -0.0057 H   0  0  0  0  0  0  0  0  0  0  0  0
    9.4074  -64.5051   -0.0070 H   0  0  0  0  0  0  0  0  0  0  0  0
    9.0807  -60.3591    0.0040 H   0  0  0  0  0  0  0  0  0  0  0  0
    6.6266  -60.6014    0.0040 H   0  0  0  0  0  0  0  0  0  0  0  0
    2.7278  -60.4620   -0.0006 H   0  0  0  0  0  0  0  0  0  0  0  0
    2.6185  -62.1906    0.0018 H   0  0  0  0  0  0  0  0  0  0  0  0
    5.0551  -60.6098   -0.0013 H   0  0  0  0  0  0  0  0  0  0  0  0
    4.8855  -63.2914    0.8192 H   0  0  0  0  0  0  0  0  0  0  0  0
    4.8845  -63.2938   -0.8141 H   0  0  0  0  0  0  0  0  0  0  0  0
   12.4546  -63.3928    0.0002 H   0  0  0  0  0  0  0  0  0  0  0  0
   11.1840  -64.0103   -0.8182 H   0  0  0  0  0  0  0  0  0  0  0  0
   11.1828  -64.0133    0.8146 H   0  0  0  0  0  0  0  0  0  0  0  0
  1  2  2  0  0  0  0
  1  6  1  0  0  0  0
  2  3  1  0  0  0  0
  3  4  2  0  0  0  0
  4  5  1  0  0  0  0
  5  6  2  0  0  0  0
  7  8  2  0  0  0  0
  8  9  1  0  0  0  0
  9  6  1  0  0  0  0
  3 10  1  0  0  0  0
 10 11  1  0  0  0  0
  1 12  1  0  0  0  0
  2 13  1  0  0  0  0
  4 14  1  0  0  0  0
  5 15  1  0  0  0  0
  7 16  1  0  0  0  0
  7 17  1  0  0  0  0
  8 18  1  0  0  0  0
  9 19  1  0  0  0  0
  9 20  1  0  0  0  0
 11 21  1  0  0  0  0
 11 22  1  0  0  0  0
 11 23  1  0  0  0  0
M  END
>  <Substance ID> (753)
753

>  <Mouse_Female_Canc> (753)
3

>  <SAL> (753)
1

>  <Rat_Male_Canc> (753)
ND

>  <TD50_Rat> (753)
ND

>  <TD50_Mouse> (753)
51.8

>  <Rat_Female_Canc> (753)
ND

>  <Canc> (753)
3

>  <MolWeight> (753)
148.20

>  <Mouse_Male_Canc> (753)
ND

>  <Mouse_Male_NTP> (753)
ND

>  <ChemName> (753)
Estragole

>  <Rat_Male_NTP> (753)
ND

>  <Reference> (753)
CPDB

>  <Formula> (753)
C10H12O

>  <SMILES> (753)
C=CCC1=CC=C(C=C1)OC

>  <Rat_Female_NTP> (753)
ND

>  <CAS> (753)
140-67-0

>  <Mouse_Female_NTP> (753)
ND

>  <Synonyms> (753)
1-Methoxy-4-(2-propen-1-yl)benzene; 1-methoxy-4-(2-propenyl)benzene; 3-(p-methoxyphenyl)propene; 4-allyl-1-methoxybenzene; 4-allylanisole; p-methoxyallylbenzene; chavicol methyl ether; Chavicyl methyl ether; esdragol; esdragon; isoanethole; methyl chavicol; tarragon.

$$$$
754
 

 37 38  0  0  0  0  0  0  0  0999 V2000
   19.0761  -71.9211   -0.7620 C   0  0  0  0  0  0  0  0  0  0  0  0
   20.5604  -71.9880   -0.9858 C   0  0  0  0  0  0  0  0  0  0  0  0
   21.2406  -71.0466   -0.3220 C   0  0  0  0  0  0  0  0  0  0  0  0
   20.1360  -70.0412    0.5870 S   0  0  0  0  0  0  0  0  0  0  0  0
   18.7290  -70.9402    0.0740 C   0  0  0  0  0  0  0  0  0  0  0  0
   11.1599  -70.6929   -0.7533 C   0  0  0  0  0  0  0  0  0  0  0  0
   12.3296  -70.2497    0.0150 N   0  0  0  0  0  0  0  0  0  0  0  0
   13.5495  -70.8709   -0.5263 C   0  0  0  0  0  0  0  0  0  0  0  0
   14.7543  -70.5734    0.4229 C   0  0  0  0  0  0  0  0  0  0  0  0
   16.0477  -71.3526    0.1831 N   0  0  0  0  0  0  0  0  0  0  0  0
   17.3084  -70.5788    0.5832 C   0  0  0  0  0  0  0  0  0  0  0  0
   12.4321  -68.7844   -0.0305 C   0  0  0  0  0  0  0  0  0  0  0  0
   16.0195  -72.8802    0.2192 C   0  0  0  0  0  0  0  0  0  0  0  0
   14.8693  -73.5653    0.1800 C   0  0  0  0  0  0  0  0  0  0  0  0
   14.8533  -75.0136    0.2080 C   0  0  0  0  0  0  0  0  0  0  0  0
   16.0052  -75.6624    0.2742 C   0  0  0  0  0  0  0  0  0  0  0  0
   17.2381  -74.8923    0.3283 C   0  0  0  0  0  0  0  0  0  0  0  0
   17.2143  -73.6167    0.3074 N   0  0  0  0  0  0  0  0  0  0  0  0
   18.4210  -72.5426   -1.1917 H   0  0  0  0  0  0  0  0  0  0  0  0
   20.9970  -72.6694   -1.5733 H   0  0  0  0  0  0  0  0  0  0  0  0
   22.2341  -70.9345   -0.3426 H   0  0  0  0  0  0  0  0  0  0  0  0
   10.3351  -70.2676   -0.3808 H   0  0  0  0  0  0  0  0  0  0  0  0
   11.0779  -71.6877   -0.6924 H   0  0  0  0  0  0  0  0  0  0  0  0
   11.2687  -70.4257   -1.7108 H   0  0  0  0  0  0  0  0  0  0  0  0
   13.4167  -71.8597   -0.5956 H   0  0  0  0  0  0  0  0  0  0  0  0
   13.7398  -70.4953   -1.4333 H   0  0  0  0  0  0  0  0  0  0  0  0
   14.9700  -69.6007    0.3379 H   0  0  0  0  0  0  0  0  0  0  0  0
   14.4554  -70.7687    1.3570 H   0  0  0  0  0  0  0  0  0  0  0  0
   17.1495  -69.6323    0.3024 H   0  0  0  0  0  0  0  0  0  0  0  0
   17.3546  -70.6277    1.5810 H   0  0  0  0  0  0  0  0  0  0  0  0
   13.2304  -68.4891    0.4944 H   0  0  0  0  0  0  0  0  0  0  0  0
   11.6067  -68.3796    0.3630 H   0  0  0  0  0  0  0  0  0  0  0  0
   12.5292  -68.4859   -0.9800 H   0  0  0  0  0  0  0  0  0  0  0  0
   14.0038  -73.0668    0.1305 H   0  0  0  0  0  0  0  0  0  0  0  0
   13.9880  -75.5140    0.1778 H   0  0  0  0  0  0  0  0  0  0  0  0
   16.0273  -76.6620    0.2869 H   0  0  0  0  0  0  0  0  0  0  0  0
   18.1156  -75.3688    0.3826 H   0  0  0  0  0  0  0  0  0  0  0  0
  1  2  1  0  0  0  0
  2  3  2  0  0  0  0
  3  4  1  0  0  0  0
  4  5  1  0  0  0  0
  5  1  2  0  0  0  0
  6  7  1  0  0  0  0
  7  8  1  0  0  0  0
  8  9  1  0  0  0  0
  9 10  1  0  0  0  0
 10 11  1  0  0  0  0
 11  5  1  0  0  0  0
  7 12  1  0  0  0  0
 10 13  1  0  0  0  0
 13 14  2  0  0  0  0
 13 18  1  0  0  0  0
 14 15  1  0  0  0  0
 15 16  2  0  0  0  0
 16 17  1  0  0  0  0
 17 18  2  0  0  0  0
  1 19  1  0  0  0  0
  2 20  1  0  0  0  0
  3 21  1  0  0  0  0
  6 22  1  0  0  0  0
  6 23  1  0  0  0  0
  6 24  1  0  0  0  0
  8 25  1  0  0  0  0
  8 26  1  0  0  0  0
  9 27  1  0  0  0  0
  9 28  1  0  0  0  0
 11 29  1  0  0  0  0
 11 30  1  0  0  0  0
 12 31  1  0  0  0  0
 12 32  1  0  0  0  0
 12 33  1  0  0  0  0
 14 34  1  0  0  0  0
 15 35  1  0  0  0  0
 16 36  1  0  0  0  0
 17 37  1  0  0  0  0
M  END
>  <Substance ID> (754)
754

>  <Mouse_Female_Canc> (754)
ND

>  <SAL> (754)
1

>  <Rat_Male_Canc> (754)
3

>  <TD50_Rat> (754)
9.13

>  <TD50_Mouse> (754)
ND

>  <Rat_Female_Canc> (754)
3

>  <Canc> (754)
3

>  <MolWeight> (754)
296.88

>  <Mouse_Male_Canc> (754)
ND

>  <Mouse_Male_NTP> (754)
ND

>  <ChemName> (754)
Methapyrilene Hydrochloride

>  <Rat_Male_NTP> (754)
ND

>  <Reference> (754)
CPDB

>  <Formula> (754)
C14H19N3S.HCl

>  <SMILES> (754)
n1ccccc1N(CCN(C)C)Cc2sccc2.[Cl]

>  <Rat_Female_NTP> (754)
ND

>  <CAS> (754)
135-23-9

>  <Mouse_Female_NTP> (754)
ND

>  <Synonyms> (754)
2-((2-(dimethylamino)ethyl)-2-thenylamino)pyridine hydrochloride; 2-((2-(dimethylamino)ethyl)-2-thenylamino)pyridine monohydrochloride; tem-histine; teralin; thenyl d.p.e. hydrochloride; thenylene; thenylene hydrochloride; thenylpyramine hydrochloride; W-53 hydrochloride; Win 2848 hydrochloride salt; barhist; blue line; capathyn; cohistine; compound 01013; coryzol; Dozar; Ethanediamine, N,N-dimethyl-N'-2-pyridinyl-N'-(2-thienylmethyl)-, monohydrochloride; histadyl; histadyl hydrochloride; histafed; histidyl; lullamin; methacon; methoxylene; N-(2-pyridyl)-N-(2-thienylmethyl)-N',N'-dimethyl-ethylenediamine hydrochloride; N,N-dimethyl-N'-2-pyridinyl-N'-(2-thienylmethyl)-1,2-ethanediamine monohydrochloride; N,N-dimethyl-N'-(2-pyridyl)-N'-(2-thenyl)ethylenediamine hydrochloride; N,N-dimethyl-N'-(2-thenyl)-N'-(2-pyridyl)-ethylenediamine hydrochloride; pyrathyn; semikon; semikon hydrochloride; somnicaps.

$$$$
755
 

 35 36  0  0  0  0  0  0  0  0999 V2000
    9.7876  -82.6791    0.0030 C   0  0  0  0  0  0  0  0  0  0  0  0
   10.6006  -81.6225   -0.0046 C   0  0  0  0  0  0  0  0  0  0  0  0
    5.3806  -85.7362    0.0006 C   0  0  0  0  0  0  0  0  0  0  0  0
    6.6835  -85.9839   -0.0109 C   0  0  0  0  0  0  0  0  0  0  0  0
    7.6181  -84.8937   -0.0121 C   0  0  0  0  0  0  0  0  0  0  0  0
    7.2293  -83.6207    0.0018 C   0  0  0  0  0  0  0  0  0  0  0  0
    5.7843  -83.3384    0.0142 C   0  0  0  0  0  0  0  0  0  0  0  0
    4.9062  -84.3451    0.0124 C   0  0  0  0  0  0  0  0  0  0  0  0
    4.4745  -86.7958    0.0021 N   0  0  0  0  0  0  0  0  0  0  0  0
    7.1953  -87.3932   -0.0209 C   0  0  0  0  0  0  0  0  0  0  0  0
    8.2359  -82.4226    0.0048 C   0  0  0  0  0  0  0  0  0  0  0  0
   12.0636  -81.8089   -0.0057 C   0  0  0  0  0  0  0  0  0  0  0  0
   12.9724  -80.6162   -0.0115 C   0  0  0  0  0  0  0  0  0  0  0  0
   13.9728  -83.2056    0.0042 N   0  0  0  0  0  0  0  0  0  0  0  0
   10.4083  -84.0237    0.0100 C   0  0  0  0  0  0  0  0  0  0  0  0
   11.7244  -84.1857    0.0106 C   0  0  0  0  0  0  0  0  0  0  0  0
   12.5890  -83.0321    0.0024 C   0  0  0  0  0  0  0  0  0  0  0  0
   10.2166  -80.6992   -0.0097 H   0  0  0  0  0  0  0  0  0  0  0  0
    8.5969  -85.0984   -0.0237 H   0  0  0  0  0  0  0  0  0  0  0  0
    5.4601  -82.3925    0.0240 H   0  0  0  0  0  0  0  0  0  0  0  0
    3.9250  -84.1520    0.0190 H   0  0  0  0  0  0  0  0  0  0  0  0
    3.4914  -86.6129    0.0108 H   0  0  0  0  0  0  0  0  0  0  0  0
    4.8076  -87.7386   -0.0055 H   0  0  0  0  0  0  0  0  0  0  0  0
    8.1951  -87.3852   -0.0289 H   0  0  0  0  0  0  0  0  0  0  0  0
    6.8596  -87.8645   -0.8365 H   0  0  0  0  0  0  0  0  0  0  0  0
    6.8728  -87.8712    0.7962 H   0  0  0  0  0  0  0  0  0  0  0  0
    8.0352  -81.8788   -0.8101 H   0  0  0  0  0  0  0  0  0  0  0  0
    8.0363  -81.8838    0.8232 H   0  0  0  0  0  0  0  0  0  0  0  0
   12.4250  -79.7794   -0.0173 H   0  0  0  0  0  0  0  0  0  0  0  0
   13.5508  -80.6413   -0.8269 H   0  0  0  0  0  0  0  0  0  0  0  0
   13.5484  -80.6315    0.8059 H   0  0  0  0  0  0  0  0  0  0  0  0
   14.3612  -84.1271    0.0103 H   0  0  0  0  0  0  0  0  0  0  0  0
   14.5767  -82.4086   -0.0006 H   0  0  0  0  0  0  0  0  0  0  0  0
    9.8188  -84.8315    0.0144 H   0  0  0  0  0  0  0  0  0  0  0  0
   12.1162  -85.1057    0.0168 H   0  0  0  0  0  0  0  0  0  0  0  0
  2  1  2  0  0  0  0
  3  4  2  0  0  0  0
  4  5  1  0  0  0  0
  5  6  2  0  0  0  0
  6  7  1  0  0  0  0
  7  8  2  0  0  0  0
  8  3  1  0  0  0  0
  3  9  1  0  0  0  0
  4 10  1  0  0  0  0
  6 11  1  0  0  0  0
 11  1  1  0  0  0  0
 17 12  2  0  0  0  0
 12 13  1  0  0  0  0
 17 14  1  0  0  0  0
  2 12  1  0  0  0  0
 15 16  2  0  0  0  0
  1 15  1  0  0  0  0
 16 17  1  0  0  0  0
  2 18  1  0  0  0  0
  5 19  1  0  0  0  0
  7 20  1  0  0  0  0
  8 21  1  0  0  0  0
  9 22  1  0  0  0  0
  9 23  1  0  0  0  0
 10 24  1  0  0  0  0
 10 25  1  0  0  0  0
 10 26  1  0  0  0  0
 11 27  1  0  0  0  0
 11 28  1  0  0  0  0
 13 29  1  0  0  0  0
 13 30  1  0  0  0  0
 13 31  1  0  0  0  0
 14 32  1  0  0  0  0
 14 33  1  0  0  0  0
 15 34  1  0  0  0  0
 16 35  1  0  0  0  0
M  END
>  <Substance ID> (755)
755

>  <Mouse_Female_Canc> (755)
ND

>  <SAL> (755)
3

>  <Rat_Male_Canc> (755)
3

>  <TD50_Rat> (755)
7.38

>  <TD50_Mouse> (755)
ND

>  <Rat_Female_Canc> (755)
3

>  <Canc> (755)
3

>  <MolWeight> (755)
226.32

>  <Mouse_Male_Canc> (755)
ND

>  <Mouse_Male_NTP> (755)
ND

>  <ChemName> (755)
4,4'-Methylene-bis(2-methylaniline)

>  <Rat_Male_NTP> (755)
ND

>  <Reference> (755)
CPDB

>  <Formula> (755)
C15H18N2

>  <SMILES> (755)
CC1=C(C=CC(=C1)CC2=CC(=C(C=C2)N)C)N

>  <Rat_Female_NTP> (755)
ND

>  <CAS> (755)
838-88-0

>  <Mouse_Female_NTP> (755)
ND

>  <Synonyms> (755)
3,3'-Dimethyl-4,4'-diaminodiphenylmethane.

$$$$
756
 

  9  8  0  0  0  0  0  0  0  0999 V2000
   44.2842   -4.6388    0.0000 N   0  0  0  0  0  0  0  0  0  0  0  0
   45.3695   -5.4082   -0.0003 N   0  0  0  0  0  0  0  0  0  0  0  0
   46.4386   -4.9180   -0.0010 O   0  0  0  0  0  0  0  0  0  0  0  0
   44.4174   -3.2098   -0.0002 C   0  0  0  0  0  0  0  0  0  0  0  0
   43.0497   -5.2055    0.0003 C   0  0  0  0  0  0  0  0  0  0  0  0
   42.0034   -5.6855    0.0005 N   0  0  0  0  0  0  0  0  0  0  0  0
   43.5099   -2.7899    0.0001 H   0  0  0  0  0  0  0  0  0  0  0  0
   44.9173   -2.9212   -0.8168 H   0  0  0  0  0  0  0  0  0  0  0  0
   44.9180   -2.9211    0.8160 H   0  0  0  0  0  0  0  0  0  0  0  0
  1  2  1  0  0  0  0
  2  3  2  0  0  0  0
  1  4  1  0  0  0  0
  1  5  1  0  0  0  0
  5  6  3  0  0  0  0
  4  7  1  0  0  0  0
  4  8  1  0  0  0  0
  4  9  1  0  0  0  0
M  END
>  <Substance ID> (756)
756

>  <Mouse_Female_Canc> (756)
ND

>  <SAL> (756)
3

>  <Rat_Male_Canc> (756)
ND

>  <TD50_Rat> (756)
0.48

>  <TD50_Mouse> (756)
ND

>  <Rat_Female_Canc> (756)
3

>  <Canc> (756)
3

>  <MolWeight> (756)
85.07

>  <Mouse_Male_Canc> (756)
ND

>  <Mouse_Male_NTP> (756)
ND

>  <ChemName> (756)
Methylnitrosocyanamide

>  <Rat_Male_NTP> (756)
ND

>  <Reference> (756)
CPDB

>  <Formula> (756)
C2H3N3O

>  <SMILES> (756)
N#CN(C)N=O

>  <Rat_Female_NTP> (756)
ND

>  <CAS> (756)
33868-17-6

>  <Mouse_Female_NTP> (756)
ND

>  <Synonyms> (756)
-

$$$$
757
 

 29 28  0  0  0  0  0  0  0  0999 V2000
   40.2049  -14.0453   -0.3481 C   0  0  1  0  0  0  0  0  0  0  0  0
   40.2762  -15.5107   -0.0825 N   0  0  0  0  0  0  0  0  0  0  0  0
   35.2642  -13.0945   -0.0408 N   0  0  0  0  0  0  0  0  0  0  0  0
   36.5772  -12.7176    0.5043 C   0  0  0  0  0  0  0  0  0  0  0  0
   37.6584  -13.4787   -0.2635 C   0  0  0  0  0  0  0  0  0  0  0  0
   39.0574  -13.1824    0.3060 C   0  0  0  0  0  0  0  0  0  0  0  0
   41.5100  -13.4806    0.1256 C   0  0  0  0  0  0  0  0  0  0  0  0
   42.6400  -14.2886    0.1844 O   0  0  0  0  0  0  0  0  0  0  0  0
   41.5818  -12.2936    0.4646 O   0  0  0  0  0  0  0  0  0  0  0  0
   38.0526  -16.1833   -0.2659 O   0  0  0  0  0  0  0  0  0  0  0  0
   39.2297  -16.4835   -0.0735 C   0  0  0  0  0  0  0  0  0  0  0  0
   39.5193  -17.8377    0.1584 N   0  0  0  0  0  0  0  0  0  0  0  0
   38.4360  -18.7797    0.2184 C   0  0  0  0  0  0  0  0  0  0  0  0
   40.7751  -18.2731    0.3168 N   0  0  0  0  0  0  0  0  0  0  0  0
   41.6910  -17.5422    0.2284 O   0  0  0  0  0  0  0  0  0  0  0  0
   39.9994  -13.9818   -1.3247 H   0  0  0  0  0  0  0  0  0  0  0  0
   41.1897  -15.8642    0.1188 H   0  0  0  0  0  0  0  0  0  0  0  0
   34.5451  -12.6043    0.4518 H   0  0  0  0  0  0  0  0  0  0  0  0
   35.1287  -14.0795    0.0660 H   0  0  0  0  0  0  0  0  0  0  0  0
   36.7169  -11.7333    0.3967 H   0  0  0  0  0  0  0  0  0  0  0  0
   36.6208  -12.9570    1.4742 H   0  0  0  0  0  0  0  0  0  0  0  0
   37.4788  -14.4599   -0.1935 H   0  0  0  0  0  0  0  0  0  0  0  0
   37.6321  -13.2022   -1.2242 H   0  0  0  0  0  0  0  0  0  0  0  0
   39.2625  -12.2159    0.1519 H   0  0  0  0  0  0  0  0  0  0  0  0
   39.0438  -13.3683    1.2885 H   0  0  0  0  0  0  0  0  0  0  0  0
   43.4156  -13.7540    0.5198 H   0  0  0  0  0  0  0  0  0  0  0  0
   38.7993  -19.6957    0.3884 H   0  0  0  0  0  0  0  0  0  0  0  0
   37.9403  -18.7741   -0.6501 H   0  0  0  0  0  0  0  0  0  0  0  0
   37.8135  -18.5258    0.9588 H   0  0  0  0  0  0  0  0  0  0  0  0
  1  2  1  1  0  0  0
  3  4  1  0  0  0  0
  4  5  1  0  0  0  0
  5  6  1  0  0  0  0
  6  1  1  0  0  0  0
  1  7  1  0  0  0  0
  7  8  1  0  0  0  0
  7  9  2  0  0  0  0
 10 11  2  0  0  0  0
 11  2  1  0  0  0  0
 11 12  1  0  0  0  0
 12 13  1  0  0  0  0
 12 14  1  0  0  0  0
 14 15  2  0  0  0  0
  1 16  1  0  0  0  0
  2 17  1  0  0  0  0
  3 18  1  0  0  0  0
  3 19  1  0  0  0  0
  4 20  1  0  0  0  0
  4 21  1  0  0  0  0
  5 22  1  0  0  0  0
  5 23  1  0  0  0  0
  6 24  1  0  0  0  0
  6 25  1  0  0  0  0
  8 26  1  0  0  0  0
 13 27  1  0  0  0  0
 13 28  1  0  0  0  0
 13 29  1  0  0  0  0
M  END
>  <Substance ID> (757)
757

>  <Mouse_Female_Canc> (757)
ND

>  <SAL> (757)
ND

>  <Rat_Male_Canc> (757)
3

>  <TD50_Rat> (757)
0.787

>  <TD50_Mouse> (757)
ND

>  <Rat_Female_Canc> (757)
3

>  <Canc> (757)
3

>  <MolWeight> (757)
218.21

>  <Mouse_Male_Canc> (757)
ND

>  <Mouse_Male_NTP> (757)
ND

>  <ChemName> (757)
N-(N-methyl-N-nitrosocarbamoyl)-L-ornithine

>  <Rat_Male_NTP> (757)
ND

>  <Reference> (757)
CPDB

>  <Formula> (757)
C7H14N4O4

>  <SMILES> (757)
O=C([C@H](CCCN)NC(N(C)N=O)=O)O

>  <Rat_Female_NTP> (757)
ND

>  <CAS> (757)
63642-17-1

>  <Mouse_Female_NTP> (757)
ND

>  <Synonyms> (757)
-

$$$$
758
 

 19 19  0  0  0  0  0  0  0  0999 V2000
   41.9202  -30.2268   -0.0008 N   0  0  0  0  0  0  0  0  0  0  0  0
   43.0419  -29.4614   -0.0044 N   0  0  0  0  0  0  0  0  0  0  0  0
   44.1339  -29.9014   -0.0008 O   0  0  0  0  0  0  0  0  0  0  0  0
   40.6469  -29.5600   -0.0000 C   0  0  0  0  0  0  0  0  0  0  0  0
   41.9516  -31.6537    0.0003 C   0  0  0  0  0  0  0  0  0  0  0  0
   40.6877  -32.4047   -0.0041 C   0  0  0  0  0  0  0  0  0  0  0  0
   40.7055  -33.7371   -0.0041 C   0  0  0  0  0  0  0  0  0  0  0  0
   41.9868  -34.4486    0.0016 C   0  0  0  0  0  0  0  0  0  0  0  0
   43.1271  -33.7700    0.0053 C   0  0  0  0  0  0  0  0  0  0  0  0
   43.1042  -32.3230    0.0041 C   0  0  0  0  0  0  0  0  0  0  0  0
   42.0162  -35.8345    0.0032 N   0  0  0  0  0  0  0  0  0  0  0  0
   41.0103  -36.4390    0.0000 O   0  0  0  0  0  0  0  0  0  0  0  0
   39.9139  -30.2402    0.0027 H   0  0  0  0  0  0  0  0  0  0  0  0
   40.5684  -28.9894   -0.8175 H   0  0  0  0  0  0  0  0  0  0  0  0
   40.5713  -28.9859    0.8153 H   0  0  0  0  0  0  0  0  0  0  0  0
   39.8153  -31.9160   -0.0072 H   0  0  0  0  0  0  0  0  0  0  0  0
   39.8471  -34.2500   -0.0080 H   0  0  0  0  0  0  0  0  0  0  0  0
   44.0003  -34.2574    0.0089 H   0  0  0  0  0  0  0  0  0  0  0  0
   43.9669  -31.8172    0.0062 H   0  0  0  0  0  0  0  0  0  0  0  0
  1  2  1  0  0  0  0
  2  3  2  0  0  0  0
  4  1  1  0  0  0  0
  1  5  1  0  0  0  0
  5  6  1  0  0  0  0
  5 10  2  0  0  0  0
  6  7  2  0  0  0  0
  7  8  1  0  0  0  0
  8  9  2  0  0  0  0
  9 10  1  0  0  0  0
  8 11  1  0  0  0  0
 11 12  2  0  0  0  0
  4 13  1  0  0  0  0
  4 14  1  0  0  0  0
  4 15  1  0  0  0  0
  6 16  1  0  0  0  0
  7 17  1  0  0  0  0
  9 18  1  0  0  0  0
 10 19  1  0  0  0  0
M  END
>  <Substance ID> (758)
758

>  <Mouse_Female_Canc> (758)
ND

>  <SAL> (758)
ND

>  <Rat_Male_Canc> (758)
3

>  <TD50_Rat> (758)
1.3

>  <TD50_Mouse> (758)
ND

>  <Rat_Female_Canc> (758)
ND

>  <Canc> (758)
3

>  <MolWeight> (758)
165.15

>  <Mouse_Male_Canc> (758)
ND

>  <Mouse_Male_NTP> (758)
ND

>  <ChemName> (758)
N-methyl-N,4-dinitrosoaniline

>  <Rat_Male_NTP> (758)
ND

>  <Reference> (758)
CPDB

>  <Formula> (758)
C7H7N3O2

>  <SMILES> (758)
C1=CC(=CC=C1N(C)N=O)N=O

>  <Rat_Female_NTP> (758)
ND

>  <CAS> (758)
99-80-9

>  <Mouse_Female_NTP> (758)
ND

>  <Synonyms> (758)
N-4-dinitroso-N-methyl-aniline.

$$$$
759
  

 46 48  0  0  0  0  0  0  0  0999 V2000
   14.8834  -11.2180    0.8324 C   0  0  0  0  0  0  0  0  0  0  0  0
   15.1021   -9.0851   -0.2511 C   0  0  1  0  0  0  0  0  0  0  0  0
   15.0658   -9.6973    1.1590 C   0  0  0  0  0  0  0  0  0  0  0  0
   16.0632  -10.0887   -0.8684 C   0  0  2  0  0  0  0  0  0  0  0  0
   15.4111  -11.3842   -0.5835 N   0  0  0  0  0  0  0  0  0  0  0  0
   16.5587  -12.3555   -0.6419 C   0  0  0  0  0  0  0  0  0  0  0  0
   17.7157  -11.5343   -0.0828 C   0  0  0  0  0  0  0  0  0  0  0  0
   17.4293  -10.2520   -0.2021 C   0  0  0  0  0  0  0  0  0  0  0  0
   15.6082   -7.7415   -0.3285 O   0  0  0  0  0  0  0  0  0  0  0  0
   18.4000   -9.1241    0.2057 C   0  0  0  0  0  0  0  0  0  0  0  0
   16.2419   -9.9295   -1.9395 H   0  0  0  0  0  0  0  0  0  0  0  0
   14.9293   -6.7739    0.3765 C   0  0  0  0  0  0  0  0  0  0  0  0
   13.9157   -7.0588    1.0246 O   0  0  0  0  0  0  0  0  0  0  0  0
   15.3791   -5.3169    0.3350 C   0  0  1  0  0  0  0  0  0  0  0  0
   17.8285   -7.8514   -0.0869 O   0  0  0  0  0  0  0  0  0  0  0  0
   18.5791   -6.8234    0.3685 C   0  0  0  0  0  0  0  0  0  0  0  0
   19.6660   -7.0795    0.9158 O   0  0  0  0  0  0  0  0  0  0  0  0
   18.1631   -5.3576    0.2418 C   0  0  1  0  0  0  0  0  0  0  0  0
   16.7511   -4.9172   -0.4102 C   0  0  1  0  0  0  0  0  0  0  0  0
   14.2268   -4.5903   -0.3805 C   0  0  0  0  0  0  0  0  0  0  0  0
   16.7843   -3.4880   -0.3833 O   0  0  0  0  0  0  0  0  0  0  0  0
   16.6858   -5.3818   -1.8845 C   0  0  0  0  0  0  0  0  0  0  0  0
   18.2575   -4.7978    1.5493 O   0  0  0  0  0  0  0  0  0  0  0  0
   19.2831   -4.6941   -0.5819 C   0  0  0  0  0  0  0  0  0  0  0  0
   13.9178  -11.4738    0.8795 H   0  0  0  0  0  0  0  0  0  0  0  0
   15.4090  -11.7798    1.4712 H   0  0  0  0  0  0  0  0  0  0  0  0
   14.2053   -8.9696   -0.6780 H   0  0  0  0  0  0  0  0  0  0  0  0
   15.9192   -9.5293    1.6525 H   0  0  0  0  0  0  0  0  0  0  0  0
   14.2971   -9.3430    1.6915 H   0  0  0  0  0  0  0  0  0  0  0  0
   16.3800  -13.1600   -0.0756 H   0  0  0  0  0  0  0  0  0  0  0  0
   16.7411  -12.6429   -1.5822 H   0  0  0  0  0  0  0  0  0  0  0  0
   18.5558  -11.9075    0.3107 H   0  0  0  0  0  0  0  0  0  0  0  0
   18.5838   -9.1855    1.1868 H   0  0  0  0  0  0  0  0  0  0  0  0
   19.2559   -9.2259   -0.3013 H   0  0  0  0  0  0  0  0  0  0  0  0
   15.5817   -5.0696    1.2825 H   0  0  0  0  0  0  0  0  0  0  0  0
   14.4401   -3.6160   -0.4525 H   0  0  0  0  0  0  0  0  0  0  0  0
   13.3822   -4.7085    0.1418 H   0  0  0  0  0  0  0  0  0  0  0  0
   14.1082   -4.9736   -1.2965 H   0  0  0  0  0  0  0  0  0  0  0  0
   17.6169   -3.1648   -0.8330 H   0  0  0  0  0  0  0  0  0  0  0  0
   17.5357   -5.1354   -2.3501 H   0  0  0  0  0  0  0  0  0  0  0  0
   15.9152   -4.9369   -2.3408 H   0  0  0  0  0  0  0  0  0  0  0  0
   16.5641   -6.3739   -1.9167 H   0  0  0  0  0  0  0  0  0  0  0  0
   17.9939   -3.8337    1.5194 H   0  0  0  0  0  0  0  0  0  0  0  0
   19.0762   -3.7237   -0.7058 H   0  0  0  0  0  0  0  0  0  0  0  0
   19.3474   -5.1376   -1.4759 H   0  0  0  0  0  0  0  0  0  0  0  0
   20.1538   -4.7898   -0.0993 H   0  0  0  0  0  0  0  0  0  0  0  0
  1  5  1  0  0  0  0
  4  2  1  0  0  0  0
  2  3  1  0  0  0  0
  3  1  1  0  0  0  0
  4  5  1  0  0  0  0
  5  6  1  0  0  0  0
  6  7  1  0  0  0  0
  7  8  2  0  0  0  0
  8  4  1  0  0  0  0
  2  9  1  1  0  0  0
  8 10  1  0  0  0  0
  4 11  1  6  0  0  0
  9 12  1  0  0  0  0
 12 13  2  0  0  0  0
 12 14  1  0  0  0  0
 14 19  1  0  0  0  0
 10 15  1  0  0  0  0
 15 16  1  0  0  0  0
 16 17  2  0  0  0  0
 16 18  1  0  0  0  0
 18 19  1  0  0  0  0
 14 20  1  6  0  0  0
 19 21  1  1  0  0  0
 19 22  1  6  0  0  0
 18 23  1  1  0  0  0
 18 24  1  6  0  0  0
  1 25  1  0  0  0  0
  1 26  1  0  0  0  0
  2 27  1  0  0  0  0
  3 28  1  0  0  0  0
  3 29  1  0  0  0  0
  6 30  1  0  0  0  0
  6 31  1  0  0  0  0
  7 32  1  0  0  0  0
 10 33  1  0  0  0  0
 10 34  1  0  0  0  0
 14 35  1  0  0  0  0
 20 36  1  0  0  0  0
 20 37  1  0  0  0  0
 20 38  1  0  0  0  0
 21 39  1  0  0  0  0
 22 40  1  0  0  0  0
 22 41  1  0  0  0  0
 22 42  1  0  0  0  0
 23 43  1  0  0  0  0
 24 44  1  0  0  0  0
 24 45  1  0  0  0  0
 24 46  1  0  0  0  0
M  END
>  <Substance ID> (759)
759

>  <Mouse_Female_Canc> (759)
ND

>  <SAL> (759)
1

>  <Rat_Male_Canc> (759)
3

>  <TD50_Rat> (759)
0.94

>  <TD50_Mouse> (759)
ND

>  <Rat_Female_Canc> (759)
ND

>  <Canc> (759)
3

>  <MolWeight> (759)
325.36

>  <Mouse_Male_Canc> (759)
ND

>  <Mouse_Male_NTP> (759)
ND

>  <ChemName> (759)
Monocrotaline

>  <Rat_Male_NTP> (759)
ND

>  <Reference> (759)
CPDB

>  <Formula> (759)
C16H23NO6

>  <SMILES> (759)
O=C1O[C@H]2C3N(CC2)CC=C3COC(=O)[C@](C)(O)[C@@]([C@@H]1C)(C)O

>  <Rat_Female_NTP> (759)
ND

>  <CAS> (759)
315-22-0

>  <Mouse_Female_NTP> (759)
ND

>  <Synonyms> (759)
-

$$$$
760
  

 19 18  0  0  0  0  0  0  0  0999 V2000
   47.3413  -56.6215   -0.0286 C   0  0  0  0  0  0  0  0  0  0  0  0
   48.6552  -55.9676   -0.0225 N   0  0  0  0  0  0  0  0  0  0  0  0
   49.8639  -56.7825    0.2675 C   0  0  0  0  0  0  0  0  0  0  0  0
   51.1581  -56.1712   -0.3342 C   0  0  2  0  0  0  0  0  0  0  0  0
   52.3384  -57.1212   -0.0577 C   0  0  0  0  0  0  0  0  0  0  0  0
   51.4486  -54.9027    0.2605 O   0  0  0  0  0  0  0  0  0  0  0  0
   48.7016  -54.5355    0.0141 C   0  0  0  0  0  0  0  0  0  0  0  0
   47.6582  -53.8820   -0.0981 O   0  0  0  0  0  0  0  0  0  0  0  0
   46.6336  -55.9468   -0.2380 H   0  0  0  0  0  0  0  0  0  0  0  0
   47.1636  -57.0221    0.8704 H   0  0  0  0  0  0  0  0  0  0  0  0
   47.3301  -57.3419   -0.7221 H   0  0  0  0  0  0  0  0  0  0  0  0
   49.9734  -56.8502    1.2592 H   0  0  0  0  0  0  0  0  0  0  0  0
   49.7332  -57.6963   -0.1170 H   0  0  0  0  0  0  0  0  0  0  0  0
   51.0223  -56.0473   -1.3172 H   0  0  0  0  0  0  0  0  0  0  0  0
   53.1760  -56.7337   -0.4427 H   0  0  0  0  0  0  0  0  0  0  0  0
   52.1579  -58.0096   -0.4799 H   0  0  0  0  0  0  0  0  0  0  0  0
   52.4487  -57.2379    0.9294 H   0  0  0  0  0  0  0  0  0  0  0  0
   52.2844  -54.5290   -0.1417 H   0  0  0  0  0  0  0  0  0  0  0  0
   49.5767  -54.0656    0.1303 H   0  0  0  0  0  0  0  0  0  0  0  0
  1  2  1  0  0  0  0
  2  3  1  0  0  0  0
  3  4  1  0  0  0  0
  4  5  1  0  0  0  0
  4  6  1  0  0  0  0
  2  7  1  0  0  0  0
  7  8  2  0  0  0  0
  1  9  1  0  0  0  0
  1 10  1  0  0  0  0
  1 11  1  0  0  0  0
  3 12  1  0  0  0  0
  3 13  1  0  0  0  0
  4 14  1  0  0  0  0
  5 15  1  0  0  0  0
  5 16  1  0  0  0  0
  5 17  1  0  0  0  0
  6 18  1  0  0  0  0
  7 19  1  0  0  0  0
M  END
>  <Substance ID> (760)
760

>  <Mouse_Female_Canc> (760)
ND

>  <SAL> (760)
3

>  <Rat_Male_Canc> (760)
3

>  <TD50_Rat> (760)
0.0463

>  <TD50_Mouse> (760)
ND

>  <Rat_Female_Canc> (760)
3

>  <Canc> (760)
3

>  <MolWeight> (760)
117.15

>  <Mouse_Male_Canc> (760)
ND

>  <Mouse_Male_NTP> (760)
ND

>  <ChemName> (760)
N-nitroso(methyl)-2-hydroxypropylamine

>  <Rat_Male_NTP> (760)
ND

>  <Reference> (760)
CPDB

>  <Formula> (760)
C5H11NO2

>  <SMILES> (760)
C(N(CC(C)O)C)=O

>  <Rat_Female_NTP> (760)
ND

>  <CAS> (760)
75411-83-5

>  <Mouse_Female_NTP> (760)
ND

>  <Synonyms> (760)
-

$$$$
761
 

 35 36  0  0  0  0  0  0  0  0999 V2000
   40.1173  -64.8558    0.1183 C   0  0  0  0  0  0  0  0  0  0  0  0
   39.8509  -66.1232   -0.1857 C   0  0  0  0  0  0  0  0  0  0  0  0
   40.9411  -67.0342   -0.4879 C   0  0  0  0  0  0  0  0  0  0  0  0
   41.5052  -64.3800    0.1638 C   0  0  0  0  0  0  0  0  0  0  0  0
   42.5213  -65.2112   -0.0789 C   0  0  0  0  0  0  0  0  0  0  0  0
   42.1969  -66.6020   -0.4414 C   0  0  0  0  0  0  0  0  0  0  0  0
   44.6775  -67.6621    1.0368 C   0  0  0  0  0  0  0  0  0  0  0  0
   43.9338  -64.6176   -0.0043 C   0  0  0  0  0  0  0  0  0  0  0  0
   45.3229  -65.3491    0.0832 N   0  0  0  0  0  0  0  0  0  0  0  0
   45.4792  -66.8793   -0.0312 C   0  0  2  0  0  0  0  0  0  0  0  0
   46.8888  -67.3363    0.3201 C   0  0  0  0  0  0  0  0  0  0  0  0
   47.8949  -66.5682   -0.3431 N   0  0  0  0  0  0  0  0  0  0  0  0
   47.8875  -65.1771    0.0729 C   0  0  0  0  0  0  0  0  0  0  0  0
   46.5596  -64.5065   -0.3137 C   0  0  1  0  0  0  0  0  0  0  0  0
   43.9297  -63.3854   -0.0367 O   0  0  0  0  0  0  0  0  0  0  0  0
   46.6172  -63.0822    0.3006 C   0  0  0  0  0  0  0  0  0  0  0  0
   49.1128  -67.1479   -0.1843 N   0  0  0  0  0  0  0  0  0  0  0  0
   49.1808  -68.3084    0.0001 O   0  0  0  0  0  0  0  0  0  0  0  0
   39.3681  -64.2239    0.3169 H   0  0  0  0  0  0  0  0  0  0  0  0
   38.9050  -66.4470   -0.2061 H   0  0  0  0  0  0  0  0  0  0  0  0
   40.7470  -67.9848   -0.7305 H   0  0  0  0  0  0  0  0  0  0  0  0
   41.6919  -63.4215    0.3792 H   0  0  0  0  0  0  0  0  0  0  0  0
   42.9395  -67.2359   -0.6577 H   0  0  0  0  0  0  0  0  0  0  0  0
   44.8205  -68.6434    0.9088 H   0  0  0  0  0  0  0  0  0  0  0  0
   43.7041  -67.4526    0.9434 H   0  0  0  0  0  0  0  0  0  0  0  0
   44.9891  -67.3966    1.9492 H   0  0  0  0  0  0  0  0  0  0  0  0
   45.1895  -67.0556   -0.9720 H   0  0  0  0  0  0  0  0  0  0  0  0
   47.0174  -67.2481    1.3079 H   0  0  0  0  0  0  0  0  0  0  0  0
   46.9904  -68.2950    0.0546 H   0  0  0  0  0  0  0  0  0  0  0  0
   48.0033  -65.1299    1.0650 H   0  0  0  0  0  0  0  0  0  0  0  0
   48.6415  -64.6961   -0.3745 H   0  0  0  0  0  0  0  0  0  0  0  0
   46.4475  -64.4374   -1.3050 H   0  0  0  0  0  0  0  0  0  0  0  0
   47.4460  -62.6176   -0.0111 H   0  0  0  0  0  0  0  0  0  0  0  0
   46.6284  -63.1492    1.2983 H   0  0  0  0  0  0  0  0  0  0  0  0
   45.8145  -62.5610    0.0108 H   0  0  0  0  0  0  0  0  0  0  0  0
  1  2  2  0  0  0  0
  2  3  1  0  0  0  0
  3  6  2  0  0  0  0
  5  4  2  0  0  0  0
  4  1  1  0  0  0  0
  5  6  1  0  0  0  0
  5  8  1  0  0  0  0
  7 10  1  0  0  0  0
  9  8  1  0  0  0  0
  9 10  1  0  0  0  0
  9 14  1  0  0  0  0
 10 11  1  0  0  0  0
 11 12  1  0  0  0  0
 12 13  1  0  0  0  0
 13 14  1  0  0  0  0
  8 15  2  0  0  0  0
 14 16  1  0  0  0  0
 12 17  1  0  0  0  0
 17 18  2  0  0  0  0
  1 19  1  0  0  0  0
  2 20  1  0  0  0  0
  3 21  1  0  0  0  0
  4 22  1  0  0  0  0
  6 23  1  0  0  0  0
  7 24  1  0  0  0  0
  7 25  1  0  0  0  0
  7 26  1  0  0  0  0
 10 27  1  0  0  0  0
 11 28  1  0  0  0  0
 11 29  1  0  0  0  0
 13 30  1  0  0  0  0
 13 31  1  0  0  0  0
 14 32  1  0  0  0  0
 16 33  1  0  0  0  0
 16 34  1  0  0  0  0
 16 35  1  0  0  0  0
M  END
>  <Substance ID> (761)
761

>  <Mouse_Female_Canc> (761)
ND

>  <SAL> (761)
1

>  <Rat_Male_Canc> (761)
ND

>  <TD50_Rat> (761)
9.66

>  <TD50_Mouse> (761)
ND

>  <Rat_Female_Canc> (761)
3

>  <Canc> (761)
3

>  <MolWeight> (761)
247.30

>  <Mouse_Male_Canc> (761)
ND

>  <Mouse_Male_NTP> (761)
ND

>  <ChemName> (761)
1-Nitroso-3,5-dimethyl-4-benzoylpiperazine

>  <Rat_Male_NTP> (761)
ND

>  <Reference> (761)
CPDB

>  <Formula> (761)
C13H17N3O2

>  <SMILES> (761)
O=NN2CC(N(C(=O)c1ccccc1)C(C)C2)C

>  <Rat_Female_NTP> (761)
ND

>  <CAS> (761)
61034-40-0

>  <Mouse_Female_NTP> (761)
ND

>  <Synonyms> (761)
-

$$$$
762
 

 38 37  0  0  0  0  0  0  0  0999 V2000
   38.2324  -74.1805   -0.1740 C   0  0  0  0  0  0  0  0  0  0  0  0
   39.5203  -74.8858   -0.2356 N   0  0  0  0  0  0  0  0  0  0  0  0
   40.7269  -74.1397    0.1424 C   0  0  0  0  0  0  0  0  0  0  0  0
   41.9675  -74.9698   -0.2256 C   0  0  0  0  0  0  0  0  0  0  0  0
   43.2408  -74.1987    0.1605 C   0  0  0  0  0  0  0  0  0  0  0  0
   44.4707  -75.0476   -0.2021 C   0  0  0  0  0  0  0  0  0  0  0  0
   45.7554  -74.2910    0.1753 C   0  0  0  0  0  0  0  0  0  0  0  0
   46.9730  -75.1611   -0.1806 C   0  0  0  0  0  0  0  0  0  0  0  0
   48.2675  -74.4199    0.1927 C   0  0  0  0  0  0  0  0  0  0  0  0
   49.4758  -75.3067   -0.1554 C   0  0  0  0  0  0  0  0  0  0  0  0
   50.7768  -74.5746    0.2170 C   0  0  0  0  0  0  0  0  0  0  0  0
   51.9825  -75.4686   -0.1256 C   0  0  0  0  0  0  0  0  0  0  0  0
   39.4857  -76.1853    0.1812 N   0  0  0  0  0  0  0  0  0  0  0  0
   38.4615  -76.7613    0.2300 O   0  0  0  0  0  0  0  0  0  0  0  0
   37.4990  -74.7995   -0.4550 H   0  0  0  0  0  0  0  0  0  0  0  0
   38.2546  -73.3908   -0.7873 H   0  0  0  0  0  0  0  0  0  0  0  0
   38.0659  -73.8705    0.7621 H   0  0  0  0  0  0  0  0  0  0  0  0
   40.7494  -73.2687   -0.3484 H   0  0  0  0  0  0  0  0  0  0  0  0
   40.7194  -73.9677    1.1274 H   0  0  0  0  0  0  0  0  0  0  0  0
   41.9434  -75.8395    0.2673 H   0  0  0  0  0  0  0  0  0  0  0  0
   41.9704  -75.1442   -1.2103 H   0  0  0  0  0  0  0  0  0  0  0  0
   43.2724  -73.3328   -0.3387 H   0  0  0  0  0  0  0  0  0  0  0  0
   43.2372  -74.0171    1.1439 H   0  0  0  0  0  0  0  0  0  0  0  0
   44.4360  -75.9128    0.2981 H   0  0  0  0  0  0  0  0  0  0  0  0
   44.4698  -75.2302   -1.1853 H   0  0  0  0  0  0  0  0  0  0  0  0
   45.7987  -73.4305   -0.3322 H   0  0  0  0  0  0  0  0  0  0  0  0
   45.7556  -74.1000    1.1569 H   0  0  0  0  0  0  0  0  0  0  0  0
   46.9254  -76.0221    0.3258 H   0  0  0  0  0  0  0  0  0  0  0  0
   46.9701  -75.3508   -1.1624 H   0  0  0  0  0  0  0  0  0  0  0  0
   48.3223  -73.5634   -0.3206 H   0  0  0  0  0  0  0  0  0  0  0  0
   48.2690  -74.2223    1.1729 H   0  0  0  0  0  0  0  0  0  0  0  0
   49.4180  -76.1638    0.3565 H   0  0  0  0  0  0  0  0  0  0  0  0
   49.4733  -75.5027   -1.1360 H   0  0  0  0  0  0  0  0  0  0  0  0
   50.8379  -73.7200   -0.2986 H   0  0  0  0  0  0  0  0  0  0  0  0
   50.7779  -74.3742    1.1967 H   0  0  0  0  0  0  0  0  0  0  0  0
   52.8290  -74.9943    0.1159 H   0  0  0  0  0  0  0  0  0  0  0  0
   51.9814  -75.6695   -1.1052 H   0  0  0  0  0  0  0  0  0  0  0  0
   51.9214  -76.3235    0.3897 H   0  0  0  0  0  0  0  0  0  0  0  0
  1  2  1  0  0  0  0
  2  3  1  0  0  0  0
  3  4  1  0  0  0  0
  4  5  1  0  0  0  0
  5  6  1  0  0  0  0
  6  7  1  0  0  0  0
  7  8  1  0  0  0  0
  8  9  1  0  0  0  0
  9 10  1  0  0  0  0
 10 11  1  0  0  0  0
 11 12  1  0  0  0  0
  2 13  1  0  0  0  0
 13 14  2  0  0  0  0
  1 15  1  0  0  0  0
  1 16  1  0  0  0  0
  1 17  1  0  0  0  0
  3 18  1  0  0  0  0
  3 19  1  0  0  0  0
  4 20  1  0  0  0  0
  4 21  1  0  0  0  0
  5 22  1  0  0  0  0
  5 23  1  0  0  0  0
  6 24  1  0  0  0  0
  6 25  1  0  0  0  0
  7 26  1  0  0  0  0
  7 27  1  0  0  0  0
  8 28  1  0  0  0  0
  8 29  1  0  0  0  0
  9 30  1  0  0  0  0
  9 31  1  0  0  0  0
 10 32  1  0  0  0  0
 10 33  1  0  0  0  0
 11 34  1  0  0  0  0
 11 35  1  0  0  0  0
 12 36  1  0  0  0  0
 12 37  1  0  0  0  0
 12 38  1  0  0  0  0
M  END
>  <Substance ID> (762)
762

>  <Mouse_Female_Canc> (762)
ND

>  <SAL> (762)
ND

>  <Rat_Male_Canc> (762)
3

>  <TD50_Rat> (762)
1.26

>  <TD50_Mouse> (762)
ND

>  <Rat_Female_Canc> (762)
ND

>  <Canc> (762)
3

>  <MolWeight> (762)
200.32

>  <Mouse_Male_Canc> (762)
ND

>  <Mouse_Male_NTP> (762)
ND

>  <ChemName> (762)
N-nitroso-N-methyldecylamine

>  <Rat_Male_NTP> (762)
ND

>  <Reference> (762)
CPDB

>  <Formula> (762)
C11H24N2O

>  <SMILES> (762)
N(CCCCCCCCCC)(C)N=O

>  <Rat_Female_NTP> (762)
ND

>  <CAS> (762)
75881-22-0

>  <Mouse_Female_NTP> (762)
ND

>  <Synonyms> (762)
-

$$$$
763
  

 24 25  0  0  0  0  0  0  0  0999 V2000
   47.9808  -85.7766    0.0038 O   0  0  0  0  0  0  0  0  0  0  0  0
   49.3068  -85.2572   -0.0147 C   0  0  0  0  0  0  0  0  0  0  0  0
   49.3543  -83.9359    0.0025 C   0  0  0  0  0  0  0  0  0  0  0  0
   48.0029  -83.4825    0.0388 C   0  0  0  0  0  0  0  0  0  0  0  0
   47.2396  -84.5627    0.0397 C   0  0  0  0  0  0  0  0  0  0  0  0
   44.9383  -85.6756    0.0703 N   0  0  0  0  0  0  0  0  0  0  0  0
   45.7760  -84.5089    0.0818 C   0  0  0  0  0  0  0  0  0  0  0  0
   45.1180  -83.3428    0.1422 C   0  0  0  0  0  0  0  0  0  0  0  0
   43.4173  -83.6757    0.1939 S   0  0  0  0  0  0  0  0  0  0  0  0
   43.6903  -85.4060    0.1168 C   0  0  0  0  0  0  0  0  0  0  0  0
   42.6926  -86.4375    0.1218 N   0  0  0  0  0  0  0  0  0  0  0  0
   41.2542  -86.3151    0.0660 C   0  0  0  0  0  0  0  0  0  0  0  0
   40.5877  -87.3438    0.2207 O   0  0  0  0  0  0  0  0  0  0  0  0
   40.4954  -85.0242   -0.1892 C   0  0  0  0  0  0  0  0  0  0  0  0
   41.0775  -84.2972   -1.2055 F   0  0  0  0  0  0  0  0  0  0  0  0
   39.1797  -85.3109   -0.4909 F   0  0  0  0  0  0  0  0  0  0  0  0
   40.5319  -84.2566    0.9580 F   0  0  0  0  0  0  0  0  0  0  0  0
   50.4457  -86.0641   -0.0440 N   0  3  0  0  0  0  0  0  0  0  0  0
   50.3335  -87.3803   -0.0570 O   0  5  0  0  0  0  0  0  0  0  0  0
   51.5136  -85.5632   -0.0528 O   0  0  0  0  0  0  0  0  0  0  0  0
   50.1763  -83.3666   -0.0078 H   0  0  0  0  0  0  0  0  0  0  0  0
   47.6925  -82.5321    0.0595 H   0  0  0  0  0  0  0  0  0  0  0  0
   45.5369  -82.4349    0.1551 H   0  0  0  0  0  0  0  0  0  0  0  0
   43.0424  -87.3731    0.1707 H   0  0  0  0  0  0  0  0  0  0  0  0
  1  2  1  0  0  0  0
  2  3  2  0  0  0  0
  3  4  1  0  0  0  0
  4  5  2  0  0  0  0
  5  1  1  0  0  0  0
  6  7  1  0  0  0  0
  7  8  2  0  0  0  0
  8  9  1  0  0  0  0
  9 10  1  0  0  0  0
 10  6  2  0  0  0  0
  7  5  1  0  0  0  0
 10 11  1  0  0  0  0
 11 12  1  0  0  0  0
 12 13  2  0  0  0  0
 12 14  1  0  0  0  0
 14 15  1  0  0  0  0
 14 16  1  0  0  0  0
 14 17  1  0  0  0  0
 18 19  1  0  0  0  0
 18 20  2  0  0  0  0
  2 18  1  0  0  0  0
  3 21  1  0  0  0  0
  4 22  1  0  0  0  0
  8 23  1  0  0  0  0
 11 24  1  0  0  0  0
M  END
>  <Substance ID> (763)
763

>  <Mouse_Female_Canc> (763)
3

>  <SAL> (763)
3

>  <Rat_Male_Canc> (763)
ND

>  <TD50_Rat> (763)
6.79

>  <TD50_Mouse> (763)
9.98

>  <Rat_Female_Canc> (763)
3

>  <Canc> (763)
3

>  <MolWeight> (763)
307.20

>  <Mouse_Male_Canc> (763)
ND

>  <Mouse_Male_NTP> (763)
ND

>  <ChemName> (763)
2,2,2-Trifluoro-N-[4-(5-nitro-2-furyl)-2-thiazolyl]acetamide

>  <Rat_Male_NTP> (763)
ND

>  <Reference> (763)
CPDB

>  <Formula> (763)
C9H4F3N3O4S

>  <SMILES> (763)
O=C(Nc2nc(c1oc([N+]([O-])=O)cc1)cs2)C(F)(F)F

>  <Rat_Female_NTP> (763)
ND

>  <CAS> (763)
42011-48-3

>  <Mouse_Female_NTP> (763)
ND

>  <Synonyms> (763)
-

$$$$
764
  

109108  0  0  0  0  0  0  0  0999 V2000
    0.3706   -9.8190    5.5079 C   0  0  0  0  0  0  0  0  0  1  0  0
   -0.9276   -9.3551    4.8942 C   0  0  0  0  0  0  0  0  0  2  0  0
   -1.2016   -7.9091    5.2861 C   0  0  1  0  0  0  0  0  0  3  0  0
   -1.5666   -7.1061    4.0446 C   0  0  0  0  0  0  0  0  0  4  0  0
   -1.8406   -5.6706    4.4204 C   0  0  0  0  0  0  0  0  0  5  0  0
   -1.8921   -4.9132    3.3186 O   0  0  0  0  0  0  0  0  0  6  0  0
   -0.8179   -4.0124    3.3082 C   0  0  2  0  0  0  0  0  0  7  0  0
   -0.9237   -3.1887    2.0530 C   0  0  2  0  0  0  0  0  0  8  0  0
    0.2206   -2.1987    2.0000 C   0  0  0  0  0  0  0  0  0  9  0  0
    0.1133   -1.3652    0.7298 C   0  0  2  0  0  0  0  0  0 10  0  0
    1.2643   -0.3693    0.6763 C   0  0  0  0  0  0  0  0  0 11  0  0
    1.1575    0.4591   -0.5865 C   0  0  2  0  0  0  0  0  0 12  0  0
    2.3015    1.4493   -0.6400 C   0  0  0  0  0  0  0  0  0 13  0  0
    2.1938    2.2825   -1.9103 C   0  0  0  0  0  0  0  0  0 14  0  0
    3.3447    3.2785   -1.9641 C   0  0  0  0  0  0  0  0  0 15  0  0
    3.2369    4.1117   -3.2344 C   0  0  0  0  0  0  0  0  0 16  0  0
    4.3810    5.1019   -3.2878 C   0  0  2  0  0  0  0  0  0 17  0  0
    4.2741    5.9303   -4.5506 C   0  0  0  0  0  0  0  0  0 18  0  0
    5.4182    6.9204   -4.6038 C   0  0  2  0  0  0  0  0  0 19  0  0
    5.3116    7.7490   -5.8665 C   0  0  1  0  0  0  0  0  0 20  0  0
    0.9650  -10.6177    4.6140 O   0  0  0  0  0  0  0  0  0 21  0  0
    0.5061   -9.9775    6.6977 O   0  0  0  0  0  0  0  0  0 22  0  0
   -2.3315   -7.8529    6.2847 C   0  0  0  0  0  0  0  0  0 23  0  0
   -2.0058   -8.5479    7.3807 O   0  0  0  0  0  0  0  0  0 24  0  0
   -3.3812   -7.2783    6.1194 O   0  0  0  0  0  0  0  0  0 25  0  0
   -1.9807   -5.2587    5.5473 O   0  0  0  0  0  0  0  0  0 26  0  0
    0.4612   -4.8217    3.2756 C   0  0  1  0  0  0  0  0  0 27  0  0
    0.4828   -5.6886    2.0236 C   0  0  0  0  0  0  0  0  0 28  0  0
    1.6585   -3.8804    3.2633 C   0  0  0  0  0  0  0  0  0 29  0  0
    1.5914   -2.9886    2.0305 C   0  0  0  0  0  0  0  0  0 30  0  0
    2.7887   -2.0474    2.0182 C   0  0  0  0  0  0  0  0  0 31  0  0
    2.7216   -1.1556    0.7854 C   0  0  0  0  0  0  0  0  0 32  0  0
   -2.1175   -2.4569    2.1228 O   0  0  0  0  0  0  0  0  0 33  0  0
   -3.1588   -3.2920    2.2150 C   0  0  0  0  0  0  0  0  0 34  0  0
   -3.2703   -4.3255    1.5995 O   0  0  0  0  0  0  0  0  0 35  0  0
   -4.1591   -2.7578    3.2105 C   0  0  0  0  0  0  0  0  0 36  0  0
   -5.5649   -3.1977    2.8238 C   0  0  1  0  0  0  0  0  0 37  0  0
   -5.9617   -2.5363    1.5106 C   0  0  0  0  0  0  0  0  0 38  0  0
   -5.6112   -4.6990    2.6773 C   0  0  0  0  0  0  0  0  0 39  0  0
   -6.8462   -5.0855    2.3376 O   0  0  0  0  0  0  0  0  0 40  0  0
   -4.6784   -5.4464    2.8522 O   0  0  0  0  0  0  0  0  0 41  0  0
   -7.3539   -2.9650    1.1168 C   0  0  0  0  0  0  0  0  0 42  0  0
   -7.6003   -4.1953    1.5814 O   0  0  0  0  0  0  0  0  0 43  0  0
   -8.1300   -2.3049    0.4679 O   0  0  0  0  0  0  0  0  0 44  0  0
   -1.2109   -0.6130    0.7254 C   0  0  0  0  0  0  0  0  0 45  0  0
   -0.0527    1.2006   -0.5157 O   0  0  0  0  0  0  0  0  0 46  0  0
    5.5911    4.3605   -3.3587 O   0  0  0  0  0  0  0  0  0 47  0  0
    6.6283    6.1789   -4.6746 O   0  0  0  0  0  0  0  0  0 48  0  0
    5.3465    6.8313   -7.0815 C   0  0  0  0  0  0  0  0  0 49  0  0
    4.0320    8.4684   -5.8536 N   0  0  0  0  0  0  0  0  0 50  0  0
   -1.7524  -10.0022    5.2679 H   0  0  0  0  0  0  0  0  0 51  0  0
   -0.8475   -9.4293    3.7866 H   0  0  0  0  0  0  0  0  0 52  0  0
   -0.2900   -7.4736    5.7530 H   0  0  0  0  0  0  0  0  0 53  0  0
   -2.4826   -7.5368    3.5816 H   0  0  0  0  0  0  0  0  0 54  0  0
   -0.7185   -7.1327    3.3243 H   0  0  0  0  0  0  0  0  0 55  0  0
   -0.9452   -3.3534    4.1936 H   0  0  0  0  0  0  0  0  0 56  0  0
   -0.8739   -3.8577    1.1675 H   0  0  0  0  0  0  0  0  0 57  0  0
    1.1873   -2.7503    2.0000 H   0  0  0  0  0  0  0  0  0 58  0  0
    0.1714   -1.5286    2.8873 H   0  0  0  0  0  0  0  0  0 59  0  0
    0.1632   -2.0356   -0.1573 H   0  0  0  0  0  0  0  0  0 60  0  0
    2.2310   -0.9208    0.6761 H   0  0  0  0  0  0  0  0  0 61  0  0
    1.2151    0.3009    1.5635 H   0  0  0  0  0  0  0  0  0 62  0  0
    1.2072   -0.2100   -1.4720 H   0  0  0  0  0  0  0  0  0 63  0  0
    3.2683    0.8978   -0.6402 H   0  0  0  0  0  0  0  0  0 64  0  0
    2.2524    2.1195    0.2472 H   0  0  0  0  0  0  0  0  0 65  0  0
    1.2270    2.8339   -1.9100 H   0  0  0  0  0  0  0  0  0 66  0  0
    2.2430    1.6122   -2.7975 H   0  0  0  0  0  0  0  0  0 67  0  0
    4.3114    2.7271   -1.9643 H   0  0  0  0  0  0  0  0  0 68  0  0
    3.2955    3.9488   -1.0769 H   0  0  0  0  0  0  0  0  0 69  0  0
    2.2702    4.6632   -3.2342 H   0  0  0  0  0  0  0  0  0 70  0  0
    3.2861    3.4415   -4.1216 H   0  0  0  0  0  0  0  0  0 71  0  0
    4.3313    5.7711   -2.4024 H   0  0  0  0  0  0  0  0  0 72  0  0
    3.3074    6.4819   -4.5504 H   0  0  0  0  0  0  0  0  0 73  0  0
    4.3233    5.2602   -5.4379 H   0  0  0  0  0  0  0  0  0 74  0  0
    5.3685    7.5895   -3.7183 H   0  0  0  0  0  0  0  0  0 75  0  0
    6.1668    8.4596   -5.9155 H   0  0  0  0  0  0  0  0  0 76  0  0
    0.3491  -11.3533    4.4583 H   0  0  0  0  0  0  0  0  0 77  0  0
   -1.2052   -8.1281    7.7379 H   0  0  0  0  0  0  0  0  0 78  0  0
    0.5095   -5.4729    4.1768 H   0  0  0  0  0  0  0  0  0 79  0  0
    1.4204   -6.2874    1.9914 H   0  0  0  0  0  0  0  0  0 80  0  0
    0.4312   -5.0471    1.1155 H   0  0  0  0  0  0  0  0  0 81  0  0
   -0.3891   -6.3802    2.0244 H   0  0  0  0  0  0  0  0  0 82  0  0
    2.5977   -4.4770    3.2376 H   0  0  0  0  0  0  0  0  0 83  0  0
    1.6410   -3.2478    4.1788 H   0  0  0  0  0  0  0  0  0 84  0  0
    0.6521   -2.3920    2.0562 H   0  0  0  0  0  0  0  0  0 85  0  0
    1.6088   -3.6212    1.1150 H   0  0  0  0  0  0  0  0  0 86  0  0
    3.7279   -2.6439    1.9925 H   0  0  0  0  0  0  0  0  0 87  0  0
    2.7712   -1.4147    2.9338 H   0  0  0  0  0  0  0  0  0 88  0  0
    3.5933   -0.4638    0.7682 H   0  0  0  0  0  0  0  0  0 89  0  0
    1.7837   -0.5564    0.7997 H   0  0  0  0  0  0  0  0  0 90  0  0
    2.7353   -1.7789   -0.1365 H   0  0  0  0  0  0  0  0  0 91  0  0
   -4.1063   -1.6460    3.2106 H   0  0  0  0  0  0  0  0  0 92  0  0
   -3.9105   -3.1581    4.2188 H   0  0  0  0  0  0  0  0  0 93  0  0
   -6.2796   -2.8942    3.6212 H   0  0  0  0  0  0  0  0  0 94  0  0
   -5.2516   -2.8455    0.7112 H   0  0  0  0  0  0  0  0  0 95  0  0
   -5.9486   -1.4303    1.6347 H   0  0  0  0  0  0  0  0  0 96  0  0
   -6.8134   -6.0537    2.2586 H   0  0  0  0  0  0  0  0  0 97  0  0
   -6.9316   -4.7744    1.1785 H   0  0  0  0  0  0  0  0  0 98  0  0
   -1.2978   -0.0008   -0.2000 H   0  0  0  0  0  0  0  0  0 99  0  0
   -1.2702    0.0586    1.6110 H   0  0  0  0  0  0  0  0  0100  0  0
   -2.0582   -1.3336    0.7640 H   0  0  0  0  0  0  0  0  0101  0  0
   -0.1077    1.7110   -1.3055 H   0  0  0  0  0  0  0  0  0102  0  0
    6.2943    4.9865   -3.3914 H   0  0  0  0  0  0  0  0  0103  0  0
    7.3315    6.8048   -4.7071 H   0  0  0  0  0  0  0  0  0104  0  0
    5.2685    7.4324   -8.0149 H   0  0  0  0  0  0  0  0  0105  0  0
    4.4969    6.1134   -7.0408 H   0  0  0  0  0  0  0  0  0106  0  0
    6.3003    6.2580   -7.0982 H   0  0  0  0  0  0  0  0  0107  0  0
    3.9494    9.0305   -6.7007 H   0  0  0  0  0  0  0  0  0108  0  0
    4.0325    9.1494   -5.0942 H   0  0  0  0  0  0  0  0  0109  0  0
  1  2  1  0  0  0  0
  1 21  1  0  0  0  0
  1 22  2  0  0  0  0
  2  3  1  0  0  0  0
  2 51  1  6  0  0  0
  2 52  1  1  0  0  0
  3  4  1  6  0  0  0
  3 23  1  1  0  0  0
  3 53  1  0  0  0  0
  4  5  1  0  0  0  0
  4 54  1  0  0  0  0
  4 55  1  6  0  0  0
  5  6  1  6  0  0  0
  5 26  2  0  0  0  0
  6  7  1  0  0  0  0
  7  8  1  6  0  0  0
  7 27  1  0  0  0  0
  7 56  1  1  0  0  0
  8  9  1  0  0  0  0
  8 33  1  0  0  0  0
  8 57  1  6  0  0  0
  9 10  1  6  0  0  0
  9 58  1  0  0  0  0
  9 59  1  1  0  0  0
 10 11  1  0  0  0  0
 10 45  1  0  0  0  0
 10 60  1  6  0  0  0
 11 12  1  6  0  0  0
 11 61  1  0  0  0  0
 11 62  1  1  0  0  0
 12 13  1  0  0  0  0
 12 46  1  0  0  0  0
 12 63  1  6  0  0  0
 13 14  1  6  0  0  0
 13 64  1  0  0  0  0
 13 65  1  1  0  0  0
 14 15  1  0  0  0  0
 14 66  1  0  0  0  0
 14 67  1  6  0  0  0
 15 16  1  6  0  0  0
 15 68  1  0  0  0  0
 15 69  1  1  0  0  0
 16 17  1  0  0  0  0
 16 70  1  0  0  0  0
 16 71  1  6  0  0  0
 17 18  1  6  0  0  0
 17 47  1  0  0  0  0
 17 72  1  1  0  0  0
 18 19  1  0  0  0  0
 18 73  1  0  0  0  0
 18 74  1  6  0  0  0
 19 20  1  6  0  0  0
 19 48  1  0  0  0  0
 19 75  1  1  0  0  0
 20 49  1  6  0  0  0
 20 50  1  0  0  0  0
 20 76  1  0  0  0  0
 21 77  1  6  0  0  0
 23 24  1  1  0  0  0
 23 25  2  0  0  0  0
 24 78  1  0  0  0  0
 27 28  1  6  0  0  0
 27 29  1  0  0  0  0
 27 79  1  1  0  0  0
 28 80  1  0  0  0  0
 28 81  1  6  0  0  0
 28 82  1  0  0  0  0
 29 30  1  6  0  0  0
 29 83  1  0  0  0  0
 29 84  1  1  0  0  0
 30 31  1  0  0  0  0
 30 85  1  0  0  0  0
 30 86  1  6  0  0  0
 31 32  1  6  0  0  0
 31 87  1  0  0  0  0
 31 88  1  1  0  0  0
 32 89  1  0  0  0  0
 32 90  1  0  0  0  0
 32 91  1  6  0  0  0
 33 34  1  0  0  0  0
 34 35  2  0  0  0  0
 34 36  1  1  0  0  0
 36 37  1  0  0  0  0
 36 92  1  1  0  0  0
 36 93  1  0  0  0  0
 37 38  1  1  0  0  0
 37 39  1  0  0  0  0
 37 94  1  6  0  0  0
 38 42  1  0  0  0  0
 38 95  1  1  0  0  0
 38 96  1  0  0  0  0
 39 40  1  0  0  0  0
 39 41  2  0  0  0  0
 40 97  1  0  0  0  0
 42 43  1  1  0  0  0
 42 44  2  0  0  0  0
 43 98  1  0  0  0  0
 45 99  1  6  0  0  0
 45100  1  1  0  0  0
 45101  1  0  0  0  0
 46102  1  6  0  0  0
 47103  1  0  0  0  0
 48104  1  0  0  0  0
 49105  1  6  0  0  0
 49106  1  0  0  0  0
 49107  1  0  0  0  0
 50108  1  6  0  0  0
 50109  1  1  0  0  0
M  END
>  <Substance ID> (764)
764

>  <Mouse_Female_Canc> (764)
3

>  <SAL> (764)
1

>  <Rat_Male_Canc> (764)
3

>  <TD50_Rat> (764)
1.16

>  <TD50_Mouse> (764)
ND

>  <Rat_Female_Canc> (764)
1

>  <Canc> (764)
3

>  <MolWeight> (764)
721.84

>  <Mouse_Male_Canc> (764)
1

>  <Mouse_Male_NTP> (764)
NE

>  <ChemName> (764)
Fumonisin B1

>  <Rat_Male_NTP> (764)
CE

>  <Reference> (764)
NTP496

>  <Formula> (764)
C34H59NO15

>  <SMILES> (764)
O=C(O)[C@H2][C@H](C(=O)O)[C@H2]C(=O)O[C@@H]([C@@H]([C@H3])[C@H2][C@H2][C@H2][C@@H3])[C@@H](OC(=O)[C@@H2][C@@H](C(=O)O)[C@H2]C(=O)O)[C@@H2][C@@H]([C@H3])[C@@H2][C@@H](O)[C@H2][C@@H2][C@@H2][C@@H2][C@@H](O)[C@H2][C@@H](O)[C@H]([N@H2])[C@@H3]

>  <Rat_Female_NTP> (764)
NE

>  <CAS> (764)
116355-83-0

>  <Mouse_Female_NTP> (764)
CE

>  <Synonyms> (764)
Fungal metabolite from Fusarium monliforme.

$$$$
765
  

 10  9  0  0  0  0  0  0  0  0999 V2000
    5.7389  -45.0891    0.0002 C   0  0  0  0  0  0  0  0  0  0  0  0
    7.0435  -44.3462    0.0007 C   0  0  0  0  0  0  0  0  0  0  0  0
    8.2725  -45.0656    0.0004 C   0  0  0  0  0  0  0  0  0  0  0  0
    9.2658  -45.6470   -0.0005 N   0  0  0  0  0  0  0  0  0  0  0  0
    7.0517  -43.0149   -0.0000 C   0  0  0  0  0  0  0  0  0  0  0  0
    4.9824  -44.4352    0.0005 H   0  0  0  0  0  0  0  0  0  0  0  0
    5.6820  -45.6643    0.8163 H   0  0  0  0  0  0  0  0  0  0  0  0
    5.6821  -45.6634   -0.8165 H   0  0  0  0  0  0  0  0  0  0  0  0
    7.9208  -42.5203    0.0003 H   0  0  0  0  0  0  0  0  0  0  0  0
    6.1888  -42.5096   -0.0009 H   0  0  0  0  0  0  0  0  0  0  0  0
  1  2  1  0  0  0  0
  2  3  1  0  0  0  0
  3  4  3  0  0  0  0
  2  5  2  0  0  0  0
  1  6  1  0  0  0  0
  1  7  1  0  0  0  0
  1  8  1  0  0  0  0
  5  9  1  0  0  0  0
  5 10  1  0  0  0  0
M  END
>  <Substance ID> (765)
765

>  <Mouse_Female_Canc> (765)
1

>  <SAL> (765)
1

>  <Rat_Male_Canc> (765)
1

>  <TD50_Rat> (765)
NP

>  <TD50_Mouse> (765)
NP

>  <Rat_Female_Canc> (765)
1

>  <Canc> (765)
1

>  <MolWeight> (765)
67.09

>  <Mouse_Male_Canc> (765)
1

>  <Mouse_Male_NTP> (765)
NE

>  <ChemName> (765)
Methacrylonitrile

>  <Rat_Male_NTP> (765)
NE

>  <Reference> (765)
NTP497

>  <Formula> (765)
C4H5N

>  <SMILES> (765)
C(#N)C(=C)C

>  <Rat_Female_NTP> (765)
NE

>  <CAS> (765)
126-98-7

>  <Mouse_Female_NTP> (765)
NE

>  <Synonyms> (765)
2-cyanopropene; 2-cyanopropene-1; 2-Methyl-2-Propenenitrile; 2-methylpropenenitrile; alpha-Methylacrylonitrile; Isopropene Cyanide; Isopropenylcarbonitrile; MAN; Methyl Acrylonitrile.

$$$$
766
 

 17 17  0  0  0  0  0  0  0  0999 V2000
    7.2545  -53.3530   -0.0001 C   0  0  0  0  0  0  0  0  0  0  0  0
    7.2417  -54.8545    0.0001 C   0  0  0  0  0  0  0  0  0  0  0  0
    5.9690  -55.5762    0.0001 C   0  0  0  0  0  0  0  0  0  0  0  0
    5.9581  -56.9076    0.0001 C   0  0  0  0  0  0  0  0  0  0  0  0
    7.2195  -57.6496   -0.0002 C   0  0  0  0  0  0  0  0  0  0  0  0
    8.3774  -56.9934    0.0002 C   0  0  0  0  0  0  0  0  0  0  0  0
    8.3894  -55.5294    0.0002 C   0  0  0  0  0  0  0  0  0  0  0  0
    7.2082  -59.0458   -0.0003 N   0  3  0  0  0  0  0  0  0  0  0  0
    6.0550  -59.6983    0.0001 O   0  5  0  0  0  0  0  0  0  0  0  0
    8.2219  -59.6418   -0.0002 O   0  0  0  0  0  0  0  0  0  0  0  0
    8.1999  -53.0272   -0.0001 H   0  0  0  0  0  0  0  0  0  0  0  0
    6.7860  -53.0151    0.8162 H   0  0  0  0  0  0  0  0  0  0  0  0
    6.7861  -53.0153   -0.8166 H   0  0  0  0  0  0  0  0  0  0  0  0
    5.1070  -55.0693    0.0001 H   0  0  0  0  0  0  0  0  0  0  0  0
    5.0880  -57.4005    0.0002 H   0  0  0  0  0  0  0  0  0  0  0  0
    9.2393  -57.5005    0.0004 H   0  0  0  0  0  0  0  0  0  0  0  0
    9.2595  -55.0364    0.0004 H   0  0  0  0  0  0  0  0  0  0  0  0
  1  2  1  0  0  0  0
  2  3  1  0  0  0  0
  2  7  2  0  0  0  0
  3  4  2  0  0  0  0
  4  5  1  0  0  0  0
  5  6  2  0  0  0  0
  6  7  1  0  0  0  0
  5  8  1  0  0  0  0
  8  9  1  0  0  0  0
  8 10  2  0  0  0  0
  1 11  1  0  0  0  0
  1 12  1  0  0  0  0
  1 13  1  0  0  0  0
  3 14  1  0  0  0  0
  4 15  1  0  0  0  0
  6 16  1  0  0  0  0
  7 17  1  0  0  0  0
M  END
>  <Substance ID> (766)
766

>  <Mouse_Female_Canc> (766)
1

>  <SAL> (766)
1

>  <Rat_Male_Canc> (766)
2

>  <TD50_Rat> (766)
ND

>  <TD50_Mouse> (766)
NP

>  <Rat_Female_Canc> (766)
3

>  <Canc> (766)
3

>  <MolWeight> (766)
137.14

>  <Mouse_Male_Canc> (766)
2

>  <Mouse_Male_NTP> (766)
EE

>  <ChemName> (766)
4-Nitrotoluene

>  <Rat_Male_NTP> (766)
EE

>  <Reference> (766)
NTP498

>  <Formula> (766)
C7H7NO2 

>  <SMILES> (766)
N(=O)(=O)c(ccc(c1)C)c1

>  <Rat_Female_NTP> (766)
SE

>  <CAS> (766)
99-99-0

>  <Mouse_Female_NTP> (766)
NE

>  <Synonyms> (766)
4-Methylnitrobenzene; p-nitrophenylmethane; 4-nitrotoluol; Benzene, 1-methyl-4-nitro-; PNT.

$$$$
767
  

  2  1  0  0  0  0  0  0  0  0999 V2000
    3.6433  -70.1049   -0.0001 In  0  0  0  0  0  0  0  0  0  0  0  0
    5.4677  -70.1042   -0.0005 P   0  0  0  0  0  0  0  0  0  0  0  0
  1  2  3  0  0  0  0
M  END
>  <Substance ID> (767)
767

>  <Mouse_Female_Canc> (767)
3

>  <SAL> (767)
ND

>  <Rat_Male_Canc> (767)
3

>  <TD50_Rat> (767)
ND

>  <TD50_Mouse> (767)
ND

>  <Rat_Female_Canc> (767)
3

>  <Canc> (767)
3

>  <MolWeight> (767)
145.79

>  <Mouse_Male_Canc> (767)
3

>  <Mouse_Male_NTP> (767)
CE

>  <ChemName> (767)
Indium phosphide

>  <Rat_Male_NTP> (767)
CE

>  <Reference> (767)
NTP499

>  <Formula> (767)
PIn

>  <SMILES> (767)
[In]#P

>  <Rat_Female_NTP> (767)
CE

>  <CAS> (767)
22398-80-7

>  <Mouse_Female_NTP> (767)
CE

>  <Synonyms> (767)
Indium (III) phosphide; Indium phosphide, 99.999% (metals basis).

$$$$
768
 

 25 26  0  0  0  0  0  0  0  0999 V2000
   11.3229  -86.6334   -0.0677 C   0  0  0  0  0  0  0  0  0  0  0  0
   12.5170  -86.5886    0.5232 C   0  0  0  0  0  0  0  0  0  0  0  0
   13.1381  -85.2957    0.8292 C   0  0  0  0  0  0  0  0  0  0  0  0
   12.4964  -84.1656    0.5346 C   0  0  0  0  0  0  0  0  0  0  0  0
   11.1867  -84.2142   -0.1286 C   0  0  0  0  0  0  0  0  0  0  0  0
   10.6306  -85.3896   -0.4244 C   0  0  0  0  0  0  0  0  0  0  0  0
    5.7525  -86.6825    0.5816 C   0  0  0  0  0  0  0  0  0  0  0  0
    7.0587  -86.6490   -0.0895 C   0  0  0  0  0  0  0  0  0  0  0  0
    7.6131  -85.4821   -0.4152 C   0  0  0  0  0  0  0  0  0  0  0  0
    6.9231  -84.2293   -0.0841 C   0  0  0  0  0  0  0  0  0  0  0  0
    5.7319  -84.2604    0.5142 C   0  0  0  0  0  0  0  0  0  0  0  0
    5.1125  -85.5455    0.8533 C   0  0  0  0  0  0  0  0  0  0  0  0
    3.5501  -85.5860    1.5973 Cl  0  0  0  0  0  0  0  0  0  0  0  0
    9.1195  -85.4459   -1.3630 S   0  0  0  0  0  0  0  0  0  0  0  0
    9.0787  -84.2036   -2.2274 O   0  0  0  0  0  0  0  0  0  0  0  0
    9.1557  -86.7099   -2.1984 O   0  0  0  0  0  0  0  0  0  0  0  0
   14.7044  -85.2380    1.5637 Cl  0  0  0  0  0  0  0  0  0  0  0  0
   10.8982  -87.5162   -0.2683 H   0  0  0  0  0  0  0  0  0  0  0  0
   12.9900  -87.4378    0.7582 H   0  0  0  0  0  0  0  0  0  0  0  0
   12.9070  -83.2835    0.7652 H   0  0  0  0  0  0  0  0  0  0  0  0
   10.7115  -83.3649   -0.3585 H   0  0  0  0  0  0  0  0  0  0  0  0
    5.3431  -87.5591    0.8348 H   0  0  0  0  0  0  0  0  0  0  0  0
    7.5327  -87.5035   -0.3022 H   0  0  0  0  0  0  0  0  0  0  0  0
    7.3470  -83.3516   -0.3075 H   0  0  0  0  0  0  0  0  0  0  0  0
    5.2602  -83.4060    0.7320 H   0  0  0  0  0  0  0  0  0  0  0  0
  1  2  2  0  0  0  0
  1  6  1  0  0  0  0
  2  3  1  0  0  0  0
  3  4  2  0  0  0  0
  4  5  1  0  0  0  0
  5  6  2  0  0  0  0
  7  8  1  0  0  0  0
  7 12  2  0  0  0  0
  8  9  2  0  0  0  0
  9 10  1  0  0  0  0
 10 11  2  0  0  0  0
 11 12  1  0  0  0  0
 13 12  1  0  0  0  0
  9 14  1  0  0  0  0
 14 15  2  0  0  0  0
 14 16  2  0  0  0  0
 14  6  1  0  0  0  0
  3 17  1  0  0  0  0
  1 18  1  0  0  0  0
  2 19  1  0  0  0  0
  4 20  1  0  0  0  0
  5 21  1  0  0  0  0
  7 22  1  0  0  0  0
  8 23  1  0  0  0  0
 10 24  1  0  0  0  0
 11 25  1  0  0  0  0
M  END
>  <Substance ID> (768)
768

>  <Mouse_Female_Canc> (768)
1

>  <SAL> (768)
1

>  <Rat_Male_Canc> (768)
1

>  <TD50_Rat> (768)
NP

>  <TD50_Mouse> (768)
NP

>  <Rat_Female_Canc> (768)
1

>  <Canc> (768)
1

>  <MolWeight> (768)
287.16

>  <Mouse_Male_Canc> (768)
1

>  <Mouse_Male_NTP> (768)
NE

>  <ChemName> (768)
4,4[-Dichlorodiphenyl sulphone]

>  <Rat_Male_NTP> (768)
NE

>  <Reference> (768)
NTP501

>  <Formula> (768)
C12H8Cl2O2S

>  <SMILES> (768)
O=S(=O)(c(ccc(c1)Cl)c1)c(ccc(c2)Cl)c2

>  <Rat_Female_NTP> (768)
NE

>  <CAS> (768)
80-07-9

>  <Mouse_Female_NTP> (768)
NE

>  <Synonyms> (768)
1,1'-sulfonylbis(4-chlorobenzene); 4,4'-dichlorophenyl sulfone; 4-chloro-1-(4-chlorophenylsulfonyl)benzene; p-chlorophenyl sulfone; bis(p-chlorophenyl) sulfone.

$$$$
769
  

 10  9  0  0  0  0  0  0  0  0999 V2000
   43.5604   -5.6191    0.2087 C   0  0  0  0  0  0  0  0  0  0  0  0
   45.0102   -5.8414   -0.2549 C   0  0  0  0  0  0  0  0  0  0  0  0
   45.4563   -4.8770   -0.5388 H   0  0  0  0  0  0  0  0  0  0  0  0
   45.7663   -6.4217    0.8106 O   0  0  0  0  0  0  0  0  0  0  0  0
   45.0195   -6.7215   -1.3813 O   0  0  0  0  0  0  0  0  0  0  0  0
   42.6256   -4.9024   -1.1078 Cl  0  0  0  0  0  0  0  0  0  0  0  0
   42.8453   -7.1688    0.6643 Cl  0  0  0  0  0  0  0  0  0  0  0  0
   43.5484   -4.5318    1.6010 Cl  0  0  0  0  0  0  0  0  0  0  0  0
   46.7091   -6.5667    0.5105 H   0  0  0  0  0  0  0  0  0  0  0  0
   45.9615   -6.8669   -1.6836 H   0  0  0  0  0  0  0  0  0  0  0  0
  1  2  1  0  0  0  0
  2  3  1  0  0  0  0
  2  4  1  0  0  0  0
  2  5  1  0  0  0  0
  1  6  1  0  0  0  0
  1  7  1  0  0  0  0
  1  8  1  0  0  0  0
  4  9  1  0  0  0  0
  5 10  1  0  0  0  0
M  END
>  <Substance ID> (769)
769

>  <Mouse_Female_Canc> (769)
2

>  <SAL> (769)
3

>  <Rat_Male_Canc> (769)
ND

>  <TD50_Rat> (769)
ND

>  <TD50_Mouse> (769)
106

>  <Rat_Female_Canc> (769)
ND

>  <Canc> (769)
3

>  <MolWeight> (769)
165.40

>  <Mouse_Male_Canc> (769)
3

>  <Mouse_Male_NTP> (769)
SE

>  <ChemName> (769)
Chloral hydrate

>  <Rat_Male_NTP> (769)
ND

>  <Reference> (769)
NTP502 & 503

>  <Formula> (769)
C2H3Cl3O2

>  <SMILES> (769)
ClC(C(O)O)(Cl)Cl

>  <Rat_Female_NTP> (769)
ND

>  <CAS> (769)
302-17-0

>  <Mouse_Female_NTP> (769)
EE

>  <Synonyms> (769)
1,1,1-trichloro-2,2-ethanediol; 2,2,2-Trichloro-1,1-ethanediol; aquachloral; bi 3411; chloraldurat; dormal; Escre; felsules; hydral; kessodrate; lorinal; Noctec; nortec; nycoton; nycton; phaldrone; rectules; sk-chloral hydrate; somni sed; somnos; sontec; trawotox; trichloroacetaldehyde hydrate; Trichloroacetaldehyde Monohydrate.

$$$$
770
  

 17 17  0  0  0  0  0  0  0  0999 V2000
   44.8758  -18.5668    0.0001 C   0  0  0  0  0  0  0  0  0  0  0  0
   46.2067  -18.5561   -0.0007 C   0  0  0  0  0  0  0  0  0  0  0  0
   46.9219  -17.2898   -0.0022 C   0  0  0  0  0  0  0  0  0  0  0  0
   46.2452  -16.1460   -0.0026 C   0  0  0  0  0  0  0  0  0  0  0  0
   44.7818  -16.1363   -0.0011 C   0  0  0  0  0  0  0  0  0  0  0  0
   44.1076  -17.3068   -0.0000 C   0  0  0  0  0  0  0  0  0  0  0  0
   44.1098  -14.7882   -0.0008 C   0  0  0  0  0  0  0  0  0  0  0  0
   42.6730  -17.4217    0.0017 N   0  3  0  0  0  0  0  0  0  0  0  0
   41.8524  -16.3798    0.0024 O   0  5  0  0  0  0  0  0  0  0  0  0
   42.1998  -18.4962    0.0026 O   0  0  0  0  0  0  0  0  0  0  0  0
   44.3898  -19.4408    0.0008 H   0  0  0  0  0  0  0  0  0  0  0  0
   46.7143  -19.4177   -0.0002 H   0  0  0  0  0  0  0  0  0  0  0  0
   47.9218  -17.2797   -0.0030 H   0  0  0  0  0  0  0  0  0  0  0  0
   46.7435  -15.2790   -0.0040 H   0  0  0  0  0  0  0  0  0  0  0  0
   43.1173  -14.9100    0.0003 H   0  0  0  0  0  0  0  0  0  0  0  0
   44.3818  -14.2794   -0.8176 H   0  0  0  0  0  0  0  0  0  0  0  0
   44.3835  -14.2790    0.8152 H   0  0  0  0  0  0  0  0  0  0  0  0
  1  2  2  0  0  0  0
  2  3  1  0  0  0  0
  3  4  2  0  0  0  0
  4  5  1  0  0  0  0
  5  6  2  0  0  0  0
  6  1  1  0  0  0  0
  5  7  1  0  0  0  0
  6  8  1  0  0  0  0
  8  9  1  0  0  0  0
  8 10  2  0  0  0  0
  1 11  1  0  0  0  0
  2 12  1  0  0  0  0
  3 13  1  0  0  0  0
  4 14  1  0  0  0  0
  7 15  1  0  0  0  0
  7 16  1  0  0  0  0
  7 17  1  0  0  0  0
M  END
>  <Substance ID> (770)
770

>  <Mouse_Female_Canc> (770)
3

>  <SAL> (770)
1

>  <Rat_Male_Canc> (770)
3

>  <TD50_Rat> (770)
ND

>  <TD50_Mouse> (770)
ND

>  <Rat_Female_Canc> (770)
3

>  <Canc> (770)
3

>  <MolWeight> (770)
137.14

>  <Mouse_Male_Canc> (770)
3

>  <Mouse_Male_NTP> (770)
CE

>  <ChemName> (770)
2-Nitrotoluene

>  <Rat_Male_NTP> (770)
CE

>  <Reference> (770)
NTP504

>  <Formula> (770)
C7H7NO2 

>  <SMILES> (770)
N(=O)(=O)c(c(ccc1)C)c1

>  <Rat_Female_NTP> (770)
CE

>  <CAS> (770)
88-72-2

>  <Mouse_Female_NTP> (770)
CE

>  <Synonyms> (770)
2-Methyl-1-nitrobenzene; 2-methylnitrobenzene; o-nitrophenylmethane; 2-nitrotoluol; alpha-Methylnitrobenzene; Benzene, 1-methyl-2-nitro-; methylnitrobenzene; ONT.

$$$$
771
 

  7  6  0  0  0  0  0  0  0  0999 V2000
   44.3920  -39.7323   -0.4062 V   0  0  0  0  0  0  0  0  0  0  0  0
   44.4637  -41.3130    0.1329 O   0  0  0  0  0  0  0  0  0  0  0  0
   47.4990  -41.1880    0.1325 O   0  0  0  0  0  0  0  0  0  0  0  0
   47.4405  -39.6065   -0.4062 V   0  0  0  0  0  0  0  0  0  0  0  0
   45.8801  -38.7922    0.2238 O   0  0  0  0  0  0  0  0  0  0  0  0
   42.9949  -39.0113    0.1618 O   0  0  0  0  0  0  0  0  0  0  0  0
   48.7735  -38.7733    0.1622 O   0  0  0  0  0  0  0  0  0  0  0  0
  1  2  2  0  0  0  0
  3  4  2  0  0  0  0
  4  5  1  0  0  0  0
  5  1  1  0  0  0  0
  1  6  2  0  0  0  0
  4  7  2  0  0  0  0
M  END
>  <Substance ID> (771)
771

>  <Mouse_Female_Canc> (771)
3

>  <SAL> (771)
1

>  <Rat_Male_Canc> (771)
3

>  <TD50_Rat> (771)
ND

>  <TD50_Mouse> (771)
ND

>  <Rat_Female_Canc> (771)
2

>  <Canc> (771)
3

>  <MolWeight> (771)
181.88

>  <Mouse_Male_Canc> (771)
3

>  <Mouse_Male_NTP> (771)
CE

>  <ChemName> (771)
Vanadium pentoxide

>  <Rat_Male_NTP> (771)
SE

>  <Reference> (771)
NTP507

>  <Formula> (771)
O5V2 

>  <SMILES> (771)
O=[V](=O)O[V](=O)=O

>  <Rat_Female_NTP> (771)
EE

>  <CAS> (771)
1314-62-1

>  <Mouse_Female_NTP> (771)
CE

>  <Synonyms> (771)
C.I. 77938; Vanadic anhydride; vanadium (5) oxide; Vanadium oxide; Vanadium oxide (5); vanadium oxide (C2O5); Vanadium oxides; vanadium(V) oxide; vanadium(V) pentoxide; V-O.

$$$$
772
 

 48 50  0  0  0  0  0  0  0  0999 V2000
   15.3584  -16.9255    0.8440 C   0  0  0  0  0  0  0  0  0  0  0  0
   14.7570  -16.4590   -0.2451 C   0  0  0  0  0  0  0  0  0  0  0  0
   14.8285  -18.3339    1.1087 C   0  0  0  0  0  0  0  0  0  0  0  0
   14.3923  -18.6957   -0.2865 N   0  0  0  0  0  0  0  0  0  0  0  0
   13.7824  -17.4488   -0.7249 C   0  0  2  0  0  0  0  0  0  0  0  0
   12.4778  -17.5254    0.1374 C   0  0  2  0  0  0  0  0  0  0  0  0
   11.9710  -18.8452   -0.3918 C   0  0  0  0  0  0  0  0  0  0  0  0
   13.2784  -19.7108   -0.3315 C   0  0  0  0  0  0  0  0  0  0  0  0
   11.4859  -16.4646   -0.0468 O   0  0  0  0  0  0  0  0  0  0  0  0
   15.0142  -15.1170   -0.8488 C   0  0  0  0  0  0  0  0  0  0  0  0
   13.5245  -17.4086   -1.7925 H   0  0  0  0  0  0  0  0  0  0  0  0
   11.7736  -15.2011    0.5045 C   0  0  0  0  0  0  0  0  0  0  0  0
   10.8123  -14.1138    0.2821 C   0  0  0  0  0  0  0  0  0  0  0  0
   12.7915  -15.0077    1.1733 O   0  0  0  0  0  0  0  0  0  0  0  0
   11.0611  -12.6430    0.6905 C   0  0  0  0  0  0  0  0  0  0  0  0
   12.4923  -12.0258    0.6453 C   0  0  0  0  0  0  0  0  0  0  0  0
    9.6409  -14.4443   -0.2669 C   0  0  0  0  0  0  0  0  0  0  0  0
    8.5720  -13.4139   -0.4975 C   0  0  0  0  0  0  0  0  0  0  0  0
   12.7202  -10.9895    1.4514 C   0  0  0  0  0  0  0  0  0  0  0  0
   13.6086  -12.4446   -0.3470 C   0  0  2  0  0  0  0  0  0  0  0  0
   14.8359  -13.0295    0.4454 C   0  0  0  0  0  0  0  0  0  0  0  0
   14.1859  -11.1191   -0.8857 C   0  0  0  0  0  0  0  0  0  0  0  0
   13.0927  -13.2281   -1.4286 O   0  0  0  0  0  0  0  0  0  0  0  0
   15.2859  -11.4042   -1.7563 O   0  0  0  0  0  0  0  0  0  0  0  0
   15.5199  -14.2842    0.1942 O   0  0  0  0  0  0  0  0  0  0  0  0
   15.2781  -12.3482    1.3769 O   0  0  0  0  0  0  0  0  0  0  0  0
   16.0384  -16.4401    1.3937 H   0  0  0  0  0  0  0  0  0  0  0  0
   14.0619  -18.3301    1.7508 H   0  0  0  0  0  0  0  0  0  0  0  0
   15.5441  -18.9450    1.4468 H   0  0  0  0  0  0  0  0  0  0  0  0
   12.6496  -17.4292    1.1178 H   0  0  0  0  0  0  0  0  0  0  0  0
   11.2525  -19.2236    0.1918 H   0  0  0  0  0  0  0  0  0  0  0  0
   11.6300  -18.7592   -1.3279 H   0  0  0  0  0  0  0  0  0  0  0  0
   13.2871  -20.2833    0.4884 H   0  0  0  0  0  0  0  0  0  0  0  0
   13.3584  -20.2892   -1.1433 H   0  0  0  0  0  0  0  0  0  0  0  0
   15.6873  -15.1940   -1.5843 H   0  0  0  0  0  0  0  0  0  0  0  0
   14.1646  -14.7349   -1.2124 H   0  0  0  0  0  0  0  0  0  0  0  0
   10.4909  -12.0816    0.0908 H   0  0  0  0  0  0  0  0  0  0  0  0
   10.7429  -12.5528    1.6342 H   0  0  0  0  0  0  0  0  0  0  0  0
    9.4721  -15.3943   -0.5294 H   0  0  0  0  0  0  0  0  0  0  0  0
    7.7737  -13.8485   -0.9143 H   0  0  0  0  0  0  0  0  0  0  0  0
    8.9203  -12.7025   -1.1080 H   0  0  0  0  0  0  0  0  0  0  0  0
    8.3096  -13.0039    0.3760 H   0  0  0  0  0  0  0  0  0  0  0  0
   13.6204  -10.5542    1.4637 H   0  0  0  0  0  0  0  0  0  0  0  0
   11.9911  -10.6471    2.0439 H   0  0  0  0  0  0  0  0  0  0  0  0
   13.4776  -10.6272   -1.3920 H   0  0  0  0  0  0  0  0  0  0  0  0
   14.5014  -10.5567   -0.1214 H   0  0  0  0  0  0  0  0  0  0  0  0
   13.8391  -13.4784   -2.0452 H   0  0  0  0  0  0  0  0  0  0  0  0
   15.6637  -10.5479   -2.1082 H   0  0  0  0  0  0  0  0  0  0  0  0
  1  2  2  0  0  0  0
  4  3  1  0  0  0  0
  3  1  1  0  0  0  0
  2  5  1  0  0  0  0
  4  5  1  0  0  0  0
  6  7  1  0  0  0  0
  7  8  1  0  0  0  0
  8  4  1  0  0  0  0
  5  6  1  0  0  0  0
  6  9  1  0  0  0  0
  2 10  1  0  0  0  0
  5 11  1  6  0  0  0
  9 12  1  0  0  0  0
 10 25  1  0  0  0  0
 12 13  1  0  0  0  0
 12 14  2  0  0  0  0
 13 15  1  0  0  0  0
 15 16  1  0  0  0  0
 13 17  2  0  0  0  0
 17 18  1  0  0  0  0
 16 19  2  0  0  0  0
 16 20  1  0  0  0  0
 20 21  1  0  0  0  0
 20 22  1  1  0  0  0
 20 23  1  6  0  0  0
 22 24  1  0  0  0  0
 21 25  1  0  0  0  0
 21 26  2  0  0  0  0
  1 27  1  0  0  0  0
  3 28  1  0  0  0  0
  3 29  1  0  0  0  0
  6 30  1  0  0  0  0
  7 31  1  0  0  0  0
  7 32  1  0  0  0  0
  8 33  1  0  0  0  0
  8 34  1  0  0  0  0
 10 35  1  0  0  0  0
 10 36  1  0  0  0  0
 15 37  1  0  0  0  0
 15 38  1  0  0  0  0
 17 39  1  0  0  0  0
 18 40  1  0  0  0  0
 18 41  1  0  0  0  0
 18 42  1  0  0  0  0
 19 43  1  0  0  0  0
 19 44  1  0  0  0  0
 22 45  1  0  0  0  0
 22 46  1  0  0  0  0
 23 47  1  0  0  0  0
 24 48  1  0  0  0  0
M  END
>  <Substance ID> (772)
772

>  <Mouse_Female_Canc> (772)
3

>  <SAL> (772)
3

>  <Rat_Male_Canc> (772)
3

>  <TD50_Rat> (772)
ND

>  <TD50_Mouse> (772)
ND

>  <Rat_Female_Canc> (772)
3

>  <Canc> (772)
3

>  <MolWeight> (772)
349.40

>  <Mouse_Male_Canc> (772)
3

>  <Mouse_Male_NTP> (772)
CE

>  <ChemName> (772)
Riddelline 

>  <Rat_Male_NTP> (772)
CE

>  <Reference> (772)
NTP508

>  <Formula> (772)
C18H23NO6 

>  <SMILES> (772)
O=C\1OC3CCN2C/C=C(/COC(=O)[C@@](O)(C(=C)\CC/1=C/C)CO)[C@@H]23

>  <Rat_Female_NTP> (772)
CE

>  <CAS> (772)
23246-96-0

>  <Mouse_Female_NTP> (772)
CE

>  <Synonyms> (772)
13,19-didehydro-12,18-dihydroxysenecionan-11,16-dione; stereoisomer of 3-ethylidene-3,4,5,6,9,11,13,14,14alpha,14beta-decahydro-6-hydroxy-6-(hydroxymethyl)-5-methylene(1,6)dioxacyclododecino[2,3,4-gh]-pyrrolizidine-2,7-dione; trans-15-ethylidene-12beta-hydroxy-12alpha-hydroxymethyl-13-methylenesenec-1-enine.

$$$$
773
 

 15 14  0  0  0  0  0  0  0  0999 V2000
   40.8647  -45.4659    0.0000 C   0  0  0  0  0  0  0  0  0  1  0  0
   42.1893  -44.7593   -0.0001 C   0  0  0  0  0  0  0  0  0  2  0  0
   43.3189  -45.4632   -0.0002 C   0  0  0  0  0  0  0  0  0  3  0  0
   44.6084  -44.7745   -0.0003 C   0  0  0  0  0  0  0  0  0  4  0  0
   45.7380  -45.4784   -0.0004 C   0  0  0  0  0  0  0  0  0  5  0  0
   47.0278  -44.7896   -0.0004 C   0  0  0  0  0  0  0  0  0  6  0  0
   48.0773  -45.4430   -0.0002 O   0  0  0  0  0  0  0  0  0  7  0  0
   40.1265  -44.7914    0.0001 H   0  0  0  0  0  0  0  0  0  8  0  0
   40.7921  -46.0389    0.8164 H   0  0  0  0  0  0  0  0  0  9  0  0
   40.7919  -46.0388   -0.8164 H   0  0  0  0  0  0  0  0  0 10  0  0
   42.2229  -43.7598   -0.0001 H   0  0  0  0  0  0  0  0  0 11  0  0
   43.2855  -46.4627   -0.0003 H   0  0  0  0  0  0  0  0  0 12  0  0
   44.6417  -43.7750   -0.0001 H   0  0  0  0  0  0  0  0  0 13  0  0
   45.7046  -46.4778   -0.0006 H   0  0  0  0  0  0  0  0  0 14  0  0
   47.0610  -43.7902   -0.0005 H   0  0  0  0  0  0  0  0  0 15  0  0
  1  2  1  0  0  0  0
  2  3  2  0  0  0  0
  3  4  1  0  0  0  0
  4  5  2  0  0  0  0
  5  6  1  0  0  0  0
  6  7  2  0  0  0  0
  1  8  1  0  0  0  0
  1  9  1  0  0  0  0
  1 10  1  0  0  0  0
  2 11  1  0  0  0  0
  3 12  1  0  0  0  0
  4 13  1  0  0  0  0
  5 14  1  0  0  0  0
  6 15  1  0  0  0  0
M  END
>  <Substance ID> (773)
773

>  <Mouse_Female_Canc> (773)
3

>  <SAL> (773)
3

>  <Rat_Male_Canc> (773)
3

>  <TD50_Rat> (773)
ND

>  <TD50_Mouse> (773)
ND

>  <Rat_Female_Canc> (773)
3

>  <Canc> (773)
3

>  <MolWeight> (773)
96.13

>  <Mouse_Male_Canc> (773)
3

>  <Mouse_Male_NTP> (773)
CE

>  <ChemName> (773)
2,4-Hexadienal

>  <Rat_Male_NTP> (773)
CE

>  <Reference> (773)
NTP509

>  <Formula> (773)
C6H8O

>  <SMILES> (773)
O=CC=CC=CC

>  <Rat_Female_NTP> (773)
CE

>  <CAS> (773)
142-83-6

>  <Mouse_Female_NTP> (773)
CE

>  <Synonyms> (773)
2,4-Hexadien-1-al; 2,4-Hexadienal, (E,E)-; 2-Propylene acrolein; (E,E)-2,4-Hexadien-1-al; Sorbic aldehyde; trans,trans-2,4-Hexadien-1-al; trans,trans-2,4-Hexadienal; trans,trans-4-Hexadienal.

$$$$
774
  

  8  7  0  0  0  0  0  0  0  0999 V2000
   13.5342  -12.9020   -0.0006 C   0  0  0  0  0  0  0  0  0  0  0  0
   14.6666  -12.2021   -0.0003 C   0  0  0  0  0  0  0  0  0  0  0  0
   15.9547  -12.8953   -0.0001 C   0  0  0  0  0  0  0  0  0  0  0  0
   17.0062  -12.2454    0.0002 O   0  0  0  0  0  0  0  0  0  0  0  0
   12.6536  -12.4282   -0.0008 H   0  0  0  0  0  0  0  0  0  0  0  0
   13.5642  -13.9015   -0.0007 H   0  0  0  0  0  0  0  0  0  0  0  0
   14.6367  -11.2025   -0.0002 H   0  0  0  0  0  0  0  0  0  0  0  0
   15.9846  -13.8949   -0.0001 H   0  0  0  0  0  0  0  0  0  0  0  0
  1  2  2  0  0  0  0
  2  3  1  0  0  0  0
  3  4  2  0  0  0  0
  1  5  1  0  0  0  0
  1  6  1  0  0  0  0
  2  7  1  0  0  0  0
  3  8  1  0  0  0  0
M  END
>  <Substance ID> (774)
774

>  <Mouse_Female_Canc> (774)
1

>  <SAL> (774)
3

>  <Rat_Male_Canc> (774)
1

>  <TD50_Rat> (774)
NP

>  <TD50_Mouse> (774)
NP

>  <Rat_Female_Canc> (774)
1

>  <Canc> (774)
1

>  <MolWeight> (774)
56.06

>  <Mouse_Male_Canc> (774)
1

>  <Mouse_Male_NTP> (774)
ND

>  <ChemName> (774)
Acrolein 

>  <Rat_Male_NTP> (774)
ND

>  <Reference> (774)
CPDB

>  <Formula> (774)
C3H4O

>  <SMILES> (774)
C=CC=O

>  <Rat_Female_NTP> (774)
ND

>  <CAS> (774)
107-02-8

>  <Mouse_Female_NTP> (774)
ND

>  <Synonyms> (774)
2-Propen-1-one; 2-propenal; acquinite; Acraldehyde; acrylaldehyde; Acrylic aldehyde; Allyl aldehyde; aqualine; biocide; crolean; ethylene aldehyde; magnacide; magnacide h; Magnacide H and B; prop-2-en-1-al; prop-2-enal; propenal; Propenaldehyde; propylene aldehyde; slimicide; trans-acrolein.

$$$$