  3-hydroxybenzaldehyde
XX    ILIB04271811163D

 17 17  0  0  1  0              1 V2000
    2.6504   -2.4834    0.0144 O   0  0  0  0  0
    0.7000   -1.2114    0.0078 C   0  0  0  0  0
    0.7000    1.2129    0.0080 C   0  0  0  0  0
    1.3999    0.0080    0.0080 C   0  0  0  0  0
   -0.7000   -1.2129   -0.0080 C   0  0  0  0  0
   -0.7000    1.2129    0.0078 C   0  0  0  0  0
   -1.3999    0.0080   -0.0080 C   0  0  0  0  0
    1.4351   -2.4844    0.0078 C   0  0  0  0  0
    1.4521    2.5156    0.0084 C   0  0  0  0  0
    2.4834    0.0080    0.0144 H   0  0  0  0  0
   -1.2417   -2.1514   -0.0144 H   0  0  0  0  0
   -1.2417    2.1514    0.0078 H   0  0  0  0  0
   -2.4834    0.0112   -0.0144 H   0  0  0  0  0
    0.8901   -3.4297   -0.0128 H   0  0  0  0  0
    2.0781    2.5732    0.8931 H   0  0  0  0  0
    2.0801    2.5742   -0.8882 H   0  0  0  0  0
    0.7434    3.3447    0.0152 H   0  0  0  0  0
  1  8  2  0  0  0
  2  4  1  0  0  0
  2  5  2  0  0  0
  2  8  1  0  0  0
  3  4  2  0  0  0
  3  6  1  0  0  0
  3  9  1  0  0  0
  4 10  1  0  0  0
  5  7  1  0  0  0
  5 11  1  0  0  0
  6  7  2  0  0  0
  6 12  1  0  0  0
  7 13  1  0  0  0
  8 14  1  0  0  0
  9 15  1  0  0  0
  9 16  1  0  0  0
  9 17  1  0  0  0
M  END
> <EXTREG>
3-hydroxybenzaldehyde

> <# Confs.>
1

> <LIC50>
0.085

> <Name>
3-hydroxybenzaldehyde

$$$$
  nonylphenol
XX    ILIB04271811163D

 39 39  0  0  1  0              1 V2000
    0.7000   -2.5020    0.0080 C   0  0  0  0  0
    1.3999   -3.7139    0.0080 C   0  0  0  0  0
   -0.7000   -2.5020    0.0078 C   0  0  0  0  0
    0.7000   -4.9258    0.0078 C   0  0  0  0  0
   -1.3999   -3.7139   -0.0080 C   0  0  0  0  0
   -0.7000   -4.9277   -0.0080 C   0  0  0  0  0
    1.4521   -1.1987    0.0084 C   0  0  0  0  0
    0.4536   -0.0307    0.0144 C   0  0  0  0  0
    1.2222    1.3003    0.0116 C   0  0  0  0  0
    0.2234    2.4678    0.0108 C   0  0  0  0  0
    0.9917    3.7988    0.0152 C   0  0  0  0  0
   -0.0138    4.9668    0.0144 C   0  0  0  0  0
    0.7615    6.2988    0.0094 C   0  0  0  0  0
   -0.2372    7.4668    0.0088 C   0  0  0  0  0
    0.5312    8.7969    0.0110 C   0  0  0  0  0
    2.4834   -3.7139    0.0144 H   0  0  0  0  0
   -1.2417   -1.5635    0.0078 H   0  0  0  0  0
    1.2422   -5.8652    0.0078 H   0  0  0  0  0
   -2.4834   -3.7139   -0.0144 H   0  0  0  0  0
   -1.2417   -5.8652   -0.0144 H   0  0  0  0  0
    2.0781   -1.1411    0.8931 H   0  0  0  0  0
    2.0801   -1.1406   -0.8882 H   0  0  0  0  0
   -0.1729   -0.0881   -0.8892 H   0  0  0  0  0
   -0.1742   -0.0888    0.8921 H   0  0  0  0  0
    1.8486    1.3574    0.8940 H   0  0  0  0  0
    1.8501    1.3584   -0.8872 H   0  0  0  0  0
   -0.4032    2.4111   -0.8884 H   0  0  0  0  0
   -0.4043    2.4102    0.8928 H   0  0  0  0  0
    1.6182    3.8564    0.8950 H   0  0  0  0  0
    1.6196    3.8574   -0.8865 H   0  0  0  0  0
   -0.6333    4.9102   -0.8877 H   0  0  0  0  0
   -0.6345    4.9082    0.8938 H   0  0  0  0  0
    1.3882    6.3555    0.8958 H   0  0  0  0  0
    1.3892    6.3555   -0.8855 H   0  0  0  0  0
   -0.8638    7.4082   -0.8867 H   0  0  0  0  0
   -0.8650    7.4082    0.8948 H   0  0  0  0  0
    1.1577    8.8555    0.8967 H   0  0  0  0  0
    1.1592    8.8555   -0.8848 H   0  0  0  0  0
   -0.1776    9.6250    0.0108 H   0  0  0  0  0
  1  2  2  0  0  0
  1  3  1  0  0  0
  1  7  1  0  0  0
  2  4  1  0  0  0
  2 16  1  0  0  0
  3  5  2  0  0  0
  3 17  1  0  0  0
  4  6  2  0  0  0
  4 18  1  0  0  0
  5  6  1  0  0  0
  5 19  1  0  0  0
  6 20  1  0  0  0
  7  8  1  0  0  0
  7 21  1  0  0  0
  7 22  1  0  0  0
  8  9  1  0  0  0
  8 23  1  0  0  0
  8 24  1  0  0  0
  9 10  1  0  0  0
  9 25  1  0  0  0
  9 26  1  0  0  0
 10 11  1  0  0  0
 10 27  1  0  0  0
 10 28  1  0  0  0
 11 12  1  0  0  0
 11 29  1  0  0  0
 11 30  1  0  0  0
 12 13  1  0  0  0
 12 31  1  0  0  0
 12 32  1  0  0  0
 13 14  1  0  0  0
 13 33  1  0  0  0
 13 34  1  0  0  0
 14 15  1  0  0  0
 14 35  1  0  0  0
 14 36  1  0  0  0
 15 37  1  0  0  0
 15 38  1  0  0  0
 15 39  1  0  0  0
M  END
> <EXTREG>
nonylphenol

> <# Confs.>
1

> <LIC50>
2.468

> <Name>
nonylphenol

$$$$
  2-4-dimethylphenol
XX    ILIB04271811163D

 19 19  0  0  1  0              1 V2000
   -1.3794   -2.3906   -0.0080 O   0  0  0  0  0
   -0.7000   -1.2129   -0.0080 C   0  0  0  0  0
    0.7000   -1.2114    0.0078 C   0  0  0  0  0
    0.7000    1.2129    0.0080 C   0  0  0  0  0
   -1.3999    0.0080   -0.0080 C   0  0  0  0  0
    1.3999    0.0080    0.0080 C   0  0  0  0  0
   -0.7000    1.2129    0.0078 C   0  0  0  0  0
    1.4526   -2.5146    0.0078 C   0  0  0  0  0
    1.4521    2.5156    0.0084 C   0  0  0  0  0
   -2.3975   -2.1904   -0.0104 H   0  0  0  0  0
   -2.4834    0.0112   -0.0144 H   0  0  0  0  0
    2.4834    0.0080    0.0144 H   0  0  0  0  0
   -1.2417    2.1514    0.0078 H   0  0  0  0  0
    1.1890   -3.0869    0.8904 H   0  0  0  0  0
    1.1899   -3.0859   -0.8911 H   0  0  0  0  0
    2.5254   -2.3145    0.0128 H   0  0  0  0  0
    2.0781    2.5732    0.8931 H   0  0  0  0  0
    2.0801    2.5742   -0.8882 H   0  0  0  0  0
    0.7434    3.3447    0.0152 H   0  0  0  0  0
  1  2  1  0  0  0
  1 10  1  0  0  0
  2  3  2  0  0  0
  2  5  1  0  0  0
  3  6  1  0  0  0
  3  8  1  0  0  0
  4  6  2  0  0  0
  4  7  1  0  0  0
  4  9  1  0  0  0
  5  7  2  0  0  0
  5 11  1  0  0  0
  6 12  1  0  0  0
  7 13  1  0  0  0
  8 14  1  0  0  0
  8 15  1  0  0  0
  8 16  1  0  0  0
  9 17  1  0  0  0
  9 18  1  0  0  0
  9 19  1  0  0  0
M  END
> <EXTREG>
2-4-dimethylphenol

> <# Confs.>
1

> <LIC50>
0.07

> <Name>
2-4-dimethylphenol

$$$$
  4-bromophenol
XX    ILIB04271811163D

 13 13  0  0  1  0              1 V2000
   -3.2500    0.0128   -0.0092 Br  0  0  0  0  0
    2.7598    0.0080    0.0080 O   0  0  0  0  0
   -1.3999    0.0080   -0.0080 C   0  0  0  0  0
    1.3999    0.0080    0.0080 C   0  0  0  0  0
   -0.7000   -1.2129   -0.0080 C   0  0  0  0  0
   -0.7000    1.2129    0.0078 C   0  0  0  0  0
    0.7000   -1.2114    0.0078 C   0  0  0  0  0
    0.7000    1.2129    0.0080 C   0  0  0  0  0
    3.0957    0.9824    0.0104 H   0  0  0  0  0
   -1.2417   -2.1514   -0.0144 H   0  0  0  0  0
   -1.2417    2.1514    0.0078 H   0  0  0  0  0
    1.2422   -2.1504    0.0078 H   0  0  0  0  0
    1.2417    2.1514    0.0144 H   0  0  0  0  0
  1  3  1  0  0  0
  2  4  1  0  0  0
  2  9  1  0  0  0
  3  5  1  0  0  0
  3  6  2  0  0  0
  4  7  1  0  0  0
  4  8  2  0  0  0
  5  7  2  0  0  0
  5 10  1  0  0  0
  6  8  1  0  0  0
  6 11  1  0  0  0
  7 12  1  0  0  0
  8 13  1  0  0  0
M  END
> <EXTREG>
4-bromophenol

> <# Confs.>
1

> <LIC50>
0.68

> <Name>
4-bromophenol

$$$$
  4-cresol
XX    ILIB04271811163D

 16 16  0  0  1  0              1 V2000
   -2.7598    0.0112   -0.0080 O   0  0  0  0  0
   -1.3999    0.0080   -0.0080 C   0  0  0  0  0
    1.3999    0.0080    0.0080 C   0  0  0  0  0
   -0.7000   -1.2129   -0.0080 C   0  0  0  0  0
   -0.7000    1.2129    0.0078 C   0  0  0  0  0
    0.7000   -1.2114    0.0078 C   0  0  0  0  0
    0.7000    1.2129    0.0080 C   0  0  0  0  0
    2.9043    0.0080    0.0084 C   0  0  0  0  0
   -3.0957    0.9827   -0.0144 H   0  0  0  0  0
   -1.2417   -2.1514   -0.0144 H   0  0  0  0  0
   -1.2417    2.1514    0.0078 H   0  0  0  0  0
    1.2422   -2.1504    0.0078 H   0  0  0  0  0
    1.2417    2.1514    0.0144 H   0  0  0  0  0
    3.2676   -0.5142    0.8928 H   0  0  0  0  0
    3.2686   -0.5132   -0.8887 H   0  0  0  0  0
    3.2686    1.0288    0.0112 H   0  0  0  0  0
  1  2  1  0  0  0
  1  9  1  0  0  0
  2  4  1  0  0  0
  2  5  2  0  0  0
  3  6  1  0  0  0
  3  7  2  0  0  0
  3  8  1  0  0  0
  4  6  2  0  0  0
  4 10  1  0  0  0
  5  7  1  0  0  0
  5 11  1  0  0  0
  6 12  1  0  0  0
  7 13  1  0  0  0
  8 14  1  0  0  0
  8 15  1  0  0  0
  8 16  1  0  0  0
M  END
> <EXTREG>
4-cresol

> <# Confs.>
1

> <LIC50>
-0.184

> <Name>
4-cresol

$$$$
  4-chlorophenol
XX    ILIB04271811163D

 13 13  0  0  1  0              1 V2000
   -3.0996    0.0128   -0.0088 Cl  0  0  0  0  0
    2.7598    0.0080    0.0080 O   0  0  0  0  0
   -1.3999    0.0080   -0.0080 C   0  0  0  0  0
    1.3999    0.0080    0.0080 C   0  0  0  0  0
   -0.7000   -1.2129   -0.0080 C   0  0  0  0  0
   -0.7000    1.2129    0.0078 C   0  0  0  0  0
    0.7000   -1.2114    0.0078 C   0  0  0  0  0
    0.7000    1.2129    0.0080 C   0  0  0  0  0
    3.0957    0.9824    0.0104 H   0  0  0  0  0
   -1.2417   -2.1514   -0.0144 H   0  0  0  0  0
   -1.2417    2.1514    0.0078 H   0  0  0  0  0
    1.2422   -2.1504    0.0078 H   0  0  0  0  0
    1.2417    2.1514    0.0144 H   0  0  0  0  0
  1  3  1  0  0  0
  2  4  1  0  0  0
  2  9  1  0  0  0
  3  5  1  0  0  0
  3  6  2  0  0  0
  4  7  1  0  0  0
  4  8  2  0  0  0
  5  7  2  0  0  0
  5 10  1  0  0  0
  6  8  1  0  0  0
  6 11  1  0  0  0
  7 12  1  0  0  0
  8 13  1  0  0  0
M  END
> <EXTREG>
4-chlorophenol

> <# Confs.>
1

> <LIC50>
0.545

> <Name>
4-chlorophenol

$$$$
  3-cresol
XX    ILIB04271811163D

 16 16  0  0  1  0              1 V2000
    2.3613   -0.6814    0.0096 O   0  0  0  0  0
    1.0020   -0.6814    0.0112 C   0  0  0  0  0
   -1.0977    0.5308    0.0128 C   0  0  0  0  0
    0.3019    0.5308    0.0112 C   0  0  0  0  0
    0.3019   -1.8936    0.0128 C   0  0  0  0  0
   -1.7979   -0.6814   -0.0096 C   0  0  0  0  0
   -1.0977   -1.8945   -0.0096 C   0  0  0  0  0
   -1.8501    1.8340    0.0128 C   0  0  0  0  0
    2.6973    0.3005    0.0120 H   0  0  0  0  0
    0.8440    1.4697    0.0088 H   0  0  0  0  0
    0.8442   -2.8320    0.0128 H   0  0  0  0  0
   -2.8818   -0.6812   -0.0112 H   0  0  0  0  0
   -1.6396   -2.8330   -0.0112 H   0  0  0  0  0
   -2.4766    1.8926   -0.8906 H   0  0  0  0  0
   -2.4775    1.8916    0.8906 H   0  0  0  0  0
   -1.1411    2.6631    0.0104 H   0  0  0  0  0
  1  2  1  0  0  0
  1  9  1  0  0  0
  2  4  2  0  0  0
  2  5  1  0  0  0
  3  4  1  0  0  0
  3  6  2  0  0  0
  3  8  1  0  0  0
  4 10  1  0  0  0
  5  7  2  0  0  0
  5 11  1  0  0  0
  6  7  1  0  0  0
  6 12  1  0  0  0
  7 13  1  0  0  0
  8 14  1  0  0  0
  8 15  1  0  0  0
  8 16  1  0  0  0
M  END
> <EXTREG>
3-cresol

> <# Confs.>
1

> <LIC50>
-0.063

> <Name>
3-cresol

$$$$
  3-chlorophenol
XX    ILIB04271811163D

 13 13  0  0  1  0              1 V2000
   -1.5498    2.6846    0.0078 Cl  0  0  0  0  0
    2.7598    0.0080    0.0080 O   0  0  0  0  0
   -0.7000    1.2129    0.0078 C   0  0  0  0  0
    1.3999    0.0080    0.0080 C   0  0  0  0  0
    0.7000    1.2129    0.0080 C   0  0  0  0  0
   -1.3999    0.0080   -0.0080 C   0  0  0  0  0
    0.7000   -1.2114    0.0078 C   0  0  0  0  0
   -0.7000   -1.2129   -0.0080 C   0  0  0  0  0
    3.0957    0.9824    0.0104 H   0  0  0  0  0
    1.2417    2.1514    0.0144 H   0  0  0  0  0
   -2.4834    0.0112   -0.0144 H   0  0  0  0  0
    1.2422   -2.1504    0.0078 H   0  0  0  0  0
   -1.2417   -2.1514   -0.0144 H   0  0  0  0  0
  1  3  1  0  0  0
  2  4  1  0  0  0
  2  9  1  0  0  0
  3  5  1  0  0  0
  3  6  2  0  0  0
  4  5  2  0  0  0
  4  7  1  0  0  0
  5 10  1  0  0  0
  6  8  1  0  0  0
  6 11  1  0  0  0
  7  8  2  0  0  0
  7 12  1  0  0  0
  8 13  1  0  0  0
M  END
> <EXTREG>
3-chlorophenol

> <# Confs.>
1

> <LIC50>
0.871

> <Name>
3-chlorophenol

$$$$
  3-5-dimethylphenol
XX    ILIB04271811163D

 19 19  0  0  1  0              1 V2000
   -1.3794   -2.3906   -0.0080 O   0  0  0  0  0
   -0.7000   -1.2129   -0.0080 C   0  0  0  0  0
    1.3999    0.0080    0.0080 C   0  0  0  0  0
   -0.7000    1.2129    0.0078 C   0  0  0  0  0
    0.7000   -1.2114    0.0078 C   0  0  0  0  0
   -1.3999    0.0080   -0.0080 C   0  0  0  0  0
    0.7000    1.2129    0.0080 C   0  0  0  0  0
    2.9043    0.0080    0.0084 C   0  0  0  0  0
   -1.4521    2.5156    0.0078 C   0  0  0  0  0
   -2.3975   -2.1904   -0.0104 H   0  0  0  0  0
    1.2422   -2.1504    0.0078 H   0  0  0  0  0
   -2.4834    0.0112   -0.0144 H   0  0  0  0  0
    1.2417    2.1514    0.0144 H   0  0  0  0  0
    3.2676   -0.5142    0.8928 H   0  0  0  0  0
    3.2686   -0.5132   -0.8887 H   0  0  0  0  0
    3.2686    1.0288    0.0112 H   0  0  0  0  0
   -2.0781    2.5742   -0.8911 H   0  0  0  0  0
   -2.0801    2.5732    0.8904 H   0  0  0  0  0
   -0.7434    3.3447    0.0144 H   0  0  0  0  0
  1  2  1  0  0  0
  1 10  1  0  0  0
  2  5  2  0  0  0
  2  6  1  0  0  0
  3  5  1  0  0  0
  3  7  2  0  0  0
  3  8  1  0  0  0
  4  6  2  0  0  0
  4  7  1  0  0  0
  4  9  1  0  0  0
  5 11  1  0  0  0
  6 12  1  0  0  0
  7 13  1  0  0  0
  8 14  1  0  0  0
  8 15  1  0  0  0
  8 16  1  0  0  0
  9 17  1  0  0  0
  9 18  1  0  0  0
  9 19  1  0  0  0
M  END
> <EXTREG>
3-5-dimethylphenol

> <# Confs.>
1

> <LIC50>
0.113

> <Name>
3-5-dimethylphenol

$$$$
  phenol
XX    ILIB04271811163D

 13 13  0  0  1  0              1 V2000
    2.7598    0.0080    0.0080 O   0  0  0  0  0
    1.3999    0.0080    0.0080 C   0  0  0  0  0
    0.7000   -1.2114    0.0078 C   0  0  0  0  0
    0.7000    1.2129    0.0080 C   0  0  0  0  0
   -0.7000   -1.2129   -0.0080 C   0  0  0  0  0
   -0.7000    1.2129    0.0078 C   0  0  0  0  0
   -1.3999    0.0080   -0.0080 C   0  0  0  0  0
    3.0957    0.9824    0.0104 H   0  0  0  0  0
    1.2422   -2.1504    0.0078 H   0  0  0  0  0
    1.2417    2.1514    0.0144 H   0  0  0  0  0
   -1.2417   -2.1514   -0.0144 H   0  0  0  0  0
   -1.2417    2.1514    0.0078 H   0  0  0  0  0
   -2.4834    0.0112   -0.0144 H   0  0  0  0  0
  1  2  1  0  0  0
  1  8  1  0  0  0
  2  3  1  0  0  0
  2  4  2  0  0  0
  3  5  2  0  0  0
  3  9  1  0  0  0
  4  6  1  0  0  0
  4 10  1  0  0  0
  5  7  1  0  0  0
  5 11  1  0  0  0
  6  7  2  0  0  0
  6 12  1  0  0  0
  7 13  1  0  0  0
M  END
> <EXTREG>
phenol

> <# Confs.>
1

> <LIC50>
-0.208

> <Name>
phenol

$$$$
  2-chloro-4-5-dimethylphenol
XX    ILIB04271811163D

 19 19  0  0  1  0              1 V2000
    1.5498    2.6846    0.0088 Cl  0  0  0  0  0
    2.7598    0.0080    0.0080 O   0  0  0  0  0
    0.7000    1.2129    0.0080 C   0  0  0  0  0
    1.3999    0.0080    0.0080 C   0  0  0  0  0
   -0.7000    1.2129    0.0078 C   0  0  0  0  0
   -0.7000   -1.2129   -0.0080 C   0  0  0  0  0
    0.7000   -1.2114    0.0078 C   0  0  0  0  0
   -1.3999    0.0080   -0.0080 C   0  0  0  0  0
   -1.4521    2.5156    0.0078 C   0  0  0  0  0
   -1.4521   -2.5156   -0.0084 C   0  0  0  0  0
    3.0957    0.9824    0.0104 H   0  0  0  0  0
    1.2422   -2.1504    0.0078 H   0  0  0  0  0
   -2.4834    0.0112   -0.0144 H   0  0  0  0  0
   -2.0781    2.5742   -0.8911 H   0  0  0  0  0
   -2.0801    2.5732    0.8904 H   0  0  0  0  0
   -0.7434    3.3447    0.0144 H   0  0  0  0  0
   -1.1880   -3.0879   -0.8928 H   0  0  0  0  0
   -1.1890   -3.0889    0.8887 H   0  0  0  0  0
   -2.5244   -2.3164   -0.0112 H   0  0  0  0  0
  1  3  1  0  0  0
  2  4  1  0  0  0
  2 11  1  0  0  0
  3  4  2  0  0  0
  3  5  1  0  0  0
  4  7  1  0  0  0
  5  8  2  0  0  0
  5  9  1  0  0  0
  6  7  2  0  0  0
  6  8  1  0  0  0
  6 10  1  0  0  0
  7 12  1  0  0  0
  8 13  1  0  0  0
  9 14  1  0  0  0
  9 15  1  0  0  0
  9 16  1  0  0  0
 10 17  1  0  0  0
 10 18  1  0  0  0
 10 19  1  0  0  0
M  END
> <EXTREG>
2-chloro-4-5-dimethylphenol

> <# Confs.>
1

> <LIC50>
0.688

> <Name>
2-chloro-4-5-dimethylphenol

$$$$
  3-5-di-tert-butylphenol
XX    ILIB04271811163D

 37 37  0  0  1  0              1 V2000
    2.7598    0.0080    0.0080 O   0  0  0  0  0
    1.3999    0.0080    0.0080 C   0  0  0  0  0
   -0.7000   -1.2129   -0.0080 C   0  0  0  0  0
   -0.7000    1.2129    0.0078 C   0  0  0  0  0
    0.7000   -1.2114    0.0078 C   0  0  0  0  0
    0.7000    1.2129    0.0080 C   0  0  0  0  0
   -1.3999    0.0080   -0.0080 C   0  0  0  0  0
   -1.4521   -2.5156   -0.0084 C   0  0  0  0  0
   -1.4521    2.5156    0.0078 C   0  0  0  0  0
   -1.0776   -3.3252   -1.2632 C   0  0  0  0  0
   -1.0796   -3.3262    1.2588 C   0  0  0  0  0
   -2.9707   -2.2344   -0.0120 C   0  0  0  0  0
   -2.3389    2.5977   -1.2612 C   0  0  0  0  0
   -2.3408    2.5967    1.2603 C   0  0  0  0  0
   -0.4487    3.6895    0.0096 C   0  0  0  0  0
    3.0957    0.9824    0.0104 H   0  0  0  0  0
    1.2422   -2.1504    0.0078 H   0  0  0  0  0
    1.2417    2.1514    0.0144 H   0  0  0  0  0
   -2.4834    0.0112   -0.0144 H   0  0  0  0  0
   -1.3408   -2.7529   -2.1533 H   0  0  0  0  0
   -0.0108   -3.5244   -1.2622 H   0  0  0  0  0
   -1.6230   -4.2695   -1.2637 H   0  0  0  0  0
   -0.0144   -3.5254    1.2593 H   0  0  0  0  0
   -1.3438   -2.7549    2.1494 H   0  0  0  0  0
   -1.6250   -4.2715    1.2578 H   0  0  0  0  0
   -3.2344   -1.6626    0.8877 H   0  0  0  0  0
   -3.2334   -1.6616   -0.8938 H   0  0  0  0  0
   -3.5156   -3.1787   -0.0152 H   0  0  0  0  0
   -1.7114    2.5410   -2.1514 H   0  0  0  0  0
   -3.0479    1.7690   -1.2622 H   0  0  0  0  0
   -2.8848    3.5430   -1.2612 H   0  0  0  0  0
   -3.0498    1.7681    1.2593 H   0  0  0  0  0
   -1.7144    2.5391    2.1514 H   0  0  0  0  0
   -2.8867    3.5420    1.2603 H   0  0  0  0  0
    0.1778    3.6318    0.8923 H   0  0  0  0  0
    0.1790    3.6318   -0.8892 H   0  0  0  0  0
   -0.9941    4.6348    0.0096 H   0  0  0  0  0
  1  2  1  0  0  0
  1 16  1  0  0  0
  2  5  1  0  0  0
  2  6  2  0  0  0
  3  5  2  0  0  0
  3  7  1  0  0  0
  3  8  1  0  0  0
  4  6  1  0  0  0
  4  7  2  0  0  0
  4  9  1  0  0  0
  5 17  1  0  0  0
  6 18  1  0  0  0
  7 19  1  0  0  0
  8 10  1  0  0  0
  8 11  1  0  0  0
  8 12  1  0  0  0
  9 13  1  0  0  0
  9 14  1  0  0  0
  9 15  1  0  0  0
 10 20  1  0  0  0
 10 21  1  0  0  0
 10 22  1  0  0  0
 11 23  1  0  0  0
 11 24  1  0  0  0
 11 25  1  0  0  0
 12 26  1  0  0  0
 12 27  1  0  0  0
 12 28  1  0  0  0
 13 29  1  0  0  0
 13 30  1  0  0  0
 13 31  1  0  0  0
 14 32  1  0  0  0
 14 33  1  0  0  0
 14 34  1  0  0  0
 15 35  1  0  0  0
 15 36  1  0  0  0
 15 37  1  0  0  0
M  END
> <EXTREG>
3-5-di-tert-butylphenol

> <# Confs.>
1

> <LIC50>
1.638

> <Name>
3-5-di-tert-butylphenol

$$$$
  2-4-6-tribromophenol
XX    ILIB04271811163D

 13 13  0  0  1  0              1 V2000
    1.6255   -2.8135    0.0078 Br  0  0  0  0  0
    1.6250    2.8145    0.0092 Br  0  0  0  0  0
   -3.2500    0.0128   -0.0092 Br  0  0  0  0  0
    2.7598    0.0080    0.0080 O   0  0  0  0  0
    0.7000   -1.2114    0.0078 C   0  0  0  0  0
    0.7000    1.2129    0.0080 C   0  0  0  0  0
   -1.3999    0.0080   -0.0080 C   0  0  0  0  0
    1.3999    0.0080    0.0080 C   0  0  0  0  0
   -0.7000   -1.2129   -0.0080 C   0  0  0  0  0
   -0.7000    1.2129    0.0078 C   0  0  0  0  0
    3.0957    0.9824    0.0104 H   0  0  0  0  0
   -1.2417   -2.1514   -0.0144 H   0  0  0  0  0
   -1.2417    2.1514    0.0078 H   0  0  0  0  0
  1  5  1  0  0  0
  2  6  1  0  0  0
  3  7  1  0  0  0
  4  8  1  0  0  0
  4 11  1  0  0  0
  5  8  1  0  0  0
  5  9  2  0  0  0
  6  8  2  0  0  0
  6 10  1  0  0  0
  7  9  1  0  0  0
  7 10  2  0  0  0
  9 12  1  0  0  0
 10 13  1  0  0  0
M  END
> <EXTREG>
2-4-6-tribromophenol

> <# Confs.>
1

> <LIC50>
2.03

> <Name>
2-4-6-tribromophenol

$$$$
  2-hydroxyacetophenone
XX    ILIB04271811163D

 17 17  0  0  1  0              1 V2000
    0.8252   -2.3887    0.0078 O   0  0  0  0  0
    2.2041    0.0080    0.0080 O   0  0  0  0  0
    0.1450   -1.2114    0.0078 C   0  0  0  0  0
    0.8450    0.0080    0.0080 C   0  0  0  0  0
   -1.2549   -1.2129   -0.0080 C   0  0  0  0  0
    0.1450    1.2129    0.0080 C   0  0  0  0  0
   -1.9546    0.0080   -0.0080 C   0  0  0  0  0
   -1.2549    1.2129    0.0078 C   0  0  0  0  0
    2.2266   -2.1279    0.0088 C   0  0  0  0  0
    2.5410    0.9824    0.0104 H   0  0  0  0  0
   -1.7964   -2.1514   -0.0144 H   0  0  0  0  0
    0.6868    2.1514    0.0144 H   0  0  0  0  0
   -3.0381    0.0112   -0.0144 H   0  0  0  0  0
   -1.7969    2.1514    0.0078 H   0  0  0  0  0
    2.4912   -1.5557   -0.8892 H   0  0  0  0  0
    2.4893   -1.5562    0.8921 H   0  0  0  0  0
    2.7725   -3.0723    0.0088 H   0  0  0  0  0
  1  3  1  0  0  0
  1  9  1  0  0  0
  2  4  1  0  0  0
  2 10  1  0  0  0
  3  4  1  0  0  0
  3  5  2  0  0  0
  4  6  2  0  0  0
  5  7  1  0  0  0
  5 11  1  0  0  0
  6  8  1  0  0  0
  6 12  1  0  0  0
  7  8  2  0  0  0
  7 13  1  0  0  0
  8 14  1  0  0  0
  9 15  1  0  0  0
  9 16  1  0  0  0
  9 17  1  0  0  0
M  END
> <EXTREG>
2-hydroxyacetophenone

> <# Confs.>
1

> <LIC50>
0.078

> <Name>
2-hydroxyacetophenone

$$$$
  ethyl-4-hydroxybenzoate
XX    ILIB04271811163D

 22 22  0  0  1  0              1 V2000
    2.2041    0.0080    0.0080 O   0  0  0  0  0
   -4.0312    1.0527   -0.0084 O   0  0  0  0  0
   -4.1367   -1.2339   -0.0124 O   0  0  0  0  0
    0.8450    0.0080    0.0080 C   0  0  0  0  0
   -1.9546    0.0080   -0.0080 C   0  0  0  0  0
    0.1450   -1.2114    0.0078 C   0  0  0  0  0
    0.1450    1.2129    0.0080 C   0  0  0  0  0
   -1.2549   -1.2129   -0.0080 C   0  0  0  0  0
   -1.2549    1.2129    0.0078 C   0  0  0  0  0
   -3.4248    0.0128   -0.0084 C   0  0  0  0  0
   -5.5391   -0.9731   -0.0080 C   0  0  0  0  0
   -6.3086   -2.3037   -0.0102 C   0  0  0  0  0
    2.5410    0.9824    0.0104 H   0  0  0  0  0
    0.6873   -2.1504    0.0078 H   0  0  0  0  0
    0.6868    2.1514    0.0144 H   0  0  0  0  0
   -1.7964   -2.1514   -0.0144 H   0  0  0  0  0
   -1.7969    2.1514    0.0078 H   0  0  0  0  0
   -5.8027   -0.4015    0.8867 H   0  0  0  0  0
   -5.8027   -0.4006   -0.8945 H   0  0  0  0  0
   -6.0430   -2.8760   -0.8958 H   0  0  0  0  0
   -6.0449   -2.8760    0.8855 H   0  0  0  0  0
   -7.3809   -2.1045   -0.0114 H   0  0  0  0  0
  1  4  1  0  0  0
  1 13  1  0  0  0
  2 10  2  0  0  0
  3 10  1  0  0  0
  3 11  1  0  0  0
  4  6  1  0  0  0
  4  7  2  0  0  0
  5  8  1  0  0  0
  5  9  2  0  0  0
  5 10  1  0  0  0
  6  8  2  0  0  0
  6 14  1  0  0  0
  7  9  1  0  0  0
  7 15  1  0  0  0
  8 16  1  0  0  0
  9 17  1  0  0  0
 11 12  1  0  0  0
 11 18  1  0  0  0
 11 19  1  0  0  0
 12 20  1  0  0  0
 12 21  1  0  0  0
 12 22  1  0  0  0
M  END
> <EXTREG>
ethyl-4-hydroxybenzoate

> <# Confs.>
1

> <LIC50>
0.573

> <Name>
ethyl-4-hydroxybenzoate

$$$$
  2-4-dichlorophenol
XX    ILIB04271811163D

 13 13  0  0  1  0              1 V2000
    0.9954   -2.6836    0.0078 Cl  0  0  0  0  0
   -3.6543    0.0128   -0.0088 Cl  0  0  0  0  0
    2.2041    0.0080    0.0080 O   0  0  0  0  0
    0.1450   -1.2114    0.0078 C   0  0  0  0  0
   -1.9546    0.0080   -0.0080 C   0  0  0  0  0
    0.8450    0.0080    0.0080 C   0  0  0  0  0
   -1.2549   -1.2129   -0.0080 C   0  0  0  0  0
   -1.2549    1.2129    0.0078 C   0  0  0  0  0
    0.1450    1.2129    0.0080 C   0  0  0  0  0
    2.5410    0.9824    0.0104 H   0  0  0  0  0
   -1.7964   -2.1514   -0.0144 H   0  0  0  0  0
   -1.7969    2.1514    0.0078 H   0  0  0  0  0
    0.6868    2.1514    0.0144 H   0  0  0  0  0
  1  4  1  0  0  0
  2  5  1  0  0  0
  3  6  1  0  0  0
  3 10  1  0  0  0
  4  6  1  0  0  0
  4  7  2  0  0  0
  5  7  1  0  0  0
  5  8  2  0  0  0
  6  9  2  0  0  0
  7 11  1  0  0  0
  8  9  1  0  0  0
  8 12  1  0  0  0
  9 13  1  0  0  0
M  END
> <EXTREG>
2-4-dichlorophenol

> <# Confs.>
1

> <LIC50>
1.036

> <Name>
2-4-dichlorophenol

$$$$
  3-ethoxy-4-hydroxybenzaldehyde
XX    ILIB04271811163D

 22 22  0  0  1  0              1 V2000
    0.8252   -2.3887    0.0078 O   0  0  0  0  0
    2.2041    0.0080    0.0080 O   0  0  0  0  0
   -4.0312    1.0527   -0.0084 O   0  0  0  0  0
    0.1450   -1.2114    0.0078 C   0  0  0  0  0
    0.8450    0.0080    0.0080 C   0  0  0  0  0
   -1.9546    0.0080   -0.0080 C   0  0  0  0  0
   -1.2549   -1.2129   -0.0080 C   0  0  0  0  0
    0.1450    1.2129    0.0080 C   0  0  0  0  0
   -1.2549    1.2129    0.0078 C   0  0  0  0  0
   -3.4248    0.0128   -0.0084 C   0  0  0  0  0
    2.2266   -2.1279    0.0088 C   0  0  0  0  0
    2.9961   -3.4590    0.0088 C   0  0  0  0  0
    2.5410    0.9824    0.0104 H   0  0  0  0  0
   -1.7964   -2.1514   -0.0144 H   0  0  0  0  0
    0.6868    2.1514    0.0144 H   0  0  0  0  0
   -1.7969    2.1514    0.0078 H   0  0  0  0  0
   -3.9697   -0.9438   -0.0112 H   0  0  0  0  0
    2.4912   -1.5557   -0.8892 H   0  0  0  0  0
    2.4893   -1.5562    0.8921 H   0  0  0  0  0
    2.7314   -4.0312    0.8914 H   0  0  0  0  0
    2.7334   -4.0293   -0.8899 H   0  0  0  0  0
    4.0684   -3.2588    0.0080 H   0  0  0  0  0
  1  4  1  0  0  0
  1 11  1  0  0  0
  2  5  1  0  0  0
  2 13  1  0  0  0
  3 10  2  0  0  0
  4  5  1  0  0  0
  4  7  2  0  0  0
  5  8  2  0  0  0
  6  7  1  0  0  0
  6  9  2  0  0  0
  6 10  1  0  0  0
  7 14  1  0  0  0
  8  9  1  0  0  0
  8 15  1  0  0  0
  9 16  1  0  0  0
 10 17  1  0  0  0
 11 12  1  0  0  0
 11 18  1  0  0  0
 11 19  1  0  0  0
 12 20  1  0  0  0
 12 21  1  0  0  0
 12 22  1  0  0  0
M  END
> <EXTREG>
3-ethoxy-4-hydroxybenzaldehyde

> <# Confs.>
1

> <LIC50>
0.015

> <Name>
3-ethoxy-4-hydroxybenzaldehyde

$$$$
  3-methoxy-4-hydroxybenzaldehyde
XX    ILIB04271811163D

 19 19  0  0  1  0              1 V2000
    0.8252   -2.3887    0.0078 O   0  0  0  0  0
    2.2041    0.0080    0.0080 O   0  0  0  0  0
   -4.0312    1.0527   -0.0084 O   0  0  0  0  0
    0.1450   -1.2114    0.0078 C   0  0  0  0  0
    0.8450    0.0080    0.0080 C   0  0  0  0  0
   -1.9546    0.0080   -0.0080 C   0  0  0  0  0
   -1.2549   -1.2129   -0.0080 C   0  0  0  0  0
    0.1450    1.2129    0.0080 C   0  0  0  0  0
   -1.2549    1.2129    0.0078 C   0  0  0  0  0
   -3.4248    0.0128   -0.0084 C   0  0  0  0  0
    2.2266   -2.1279    0.0088 C   0  0  0  0  0
    2.5410    0.9824    0.0104 H   0  0  0  0  0
   -1.7964   -2.1514   -0.0144 H   0  0  0  0  0
    0.6868    2.1514    0.0144 H   0  0  0  0  0
   -1.7969    2.1514    0.0078 H   0  0  0  0  0
   -3.9697   -0.9438   -0.0112 H   0  0  0  0  0
    2.4912   -1.5557   -0.8892 H   0  0  0  0  0
    2.4893   -1.5562    0.8921 H   0  0  0  0  0
    2.7725   -3.0723    0.0088 H   0  0  0  0  0
  1  4  1  0  0  0
  1 11  1  0  0  0
  2  5  1  0  0  0
  2 12  1  0  0  0
  3 10  2  0  0  0
  4  5  1  0  0  0
  4  7  2  0  0  0
  5  8  2  0  0  0
  6  7  1  0  0  0
  6  9  2  0  0  0
  6 10  1  0  0  0
  7 13  1  0  0  0
  8  9  1  0  0  0
  8 14  1  0  0  0
  9 15  1  0  0  0
 10 16  1  0  0  0
 11 17  1  0  0  0
 11 18  1  0  0  0
 11 19  1  0  0  0
M  END
> <EXTREG>
3-methoxy-4-hydroxybenzaldehyde

> <# Confs.>
1

> <LIC50>
-0.03

> <Name>
3-methoxy-4-hydroxybenzaldehyde

$$$$
  3-hydroxyacetophenone
XX    ILIB04271811163D

 17 17  0  0  1  0              1 V2000
   -1.9346   -2.3906   -0.0080 O   0  0  0  0  0
    2.2041    0.0080    0.0080 O   0  0  0  0  0
   -1.2549   -1.2129   -0.0080 C   0  0  0  0  0
    0.8450    0.0080    0.0080 C   0  0  0  0  0
    0.1450   -1.2114    0.0078 C   0  0  0  0  0
   -1.9546    0.0080   -0.0080 C   0  0  0  0  0
    0.1450    1.2129    0.0080 C   0  0  0  0  0
   -1.2549    1.2129    0.0078 C   0  0  0  0  0
   -3.3359   -2.1299   -0.0116 C   0  0  0  0  0
    2.5410    0.9824    0.0104 H   0  0  0  0  0
    0.6873   -2.1504    0.0078 H   0  0  0  0  0
   -3.0381    0.0112   -0.0144 H   0  0  0  0  0
    0.6868    2.1514    0.0144 H   0  0  0  0  0
   -1.7969    2.1514    0.0078 H   0  0  0  0  0
   -3.6006   -1.5586    0.8879 H   0  0  0  0  0
   -3.5996   -1.5576   -0.8936 H   0  0  0  0  0
   -3.8818   -3.0752   -0.0144 H   0  0  0  0  0
  1  3  1  0  0  0
  1  9  1  0  0  0
  2  4  1  0  0  0
  2 10  1  0  0  0
  3  5  2  0  0  0
  3  6  1  0  0  0
  4  5  1  0  0  0
  4  7  2  0  0  0
  5 11  1  0  0  0
  6  8  2  0  0  0
  6 12  1  0  0  0
  7  8  1  0  0  0
  7 13  1  0  0  0
  8 14  1  0  0  0
  9 15  1  0  0  0
  9 16  1  0  0  0
  9 17  1  0  0  0
M  END
> <EXTREG>
3-hydroxyacetophenone

> <# Confs.>
1

> <LIC50>
-0.381

> <Name>
3-hydroxyacetophenone

$$$$
  4-butoxyphenol
XX    ILIB04271811163D

 23 23  0  0  1  0              1 V2000
   -3.3145    0.0112   -0.0080 O   0  0  0  0  0
    2.2041    0.0080    0.0080 O   0  0  0  0  0
   -1.9546    0.0080   -0.0080 C   0  0  0  0  0
    0.8450    0.0080    0.0080 C   0  0  0  0  0
   -1.2549   -1.2129   -0.0080 C   0  0  0  0  0
   -1.2549    1.2129    0.0078 C   0  0  0  0  0
    0.1450   -1.2114    0.0078 C   0  0  0  0  0
    0.1450    1.2129    0.0080 C   0  0  0  0  0
   -3.7900    1.3452   -0.0144 C   0  0  0  0  0
   -5.3262    1.3452   -0.0116 C   0  0  0  0  0
   -5.8379    2.7939   -0.0104 C   0  0  0  0  0
    2.5410    0.9824    0.0104 H   0  0  0  0  0
   -1.7964   -2.1514   -0.0144 H   0  0  0  0  0
   -1.7969    2.1514    0.0078 H   0  0  0  0  0
    0.6873   -2.1504    0.0078 H   0  0  0  0  0
    0.6868    2.1514    0.0144 H   0  0  0  0  0
   -3.4268    1.8589    0.8894 H   0  0  0  0  0
   -3.4248    1.8599   -0.8921 H   0  0  0  0  0
   -5.6895    0.8315   -0.8940 H   0  0  0  0  0
   -5.6914    0.8308    0.8875 H   0  0  0  0  0
   -5.4746    3.3086    0.8884 H   0  0  0  0  0
   -5.4746    3.3086   -0.8928 H   0  0  0  0  0
   -6.9297    2.7939   -0.0136 H   0  0  0  0  0
  1  3  1  0  0  0
  1  9  1  0  0  0
  2  4  1  0  0  0
  2 12  1  0  0  0
  3  5  1  0  0  0
  3  6  2  0  0  0
  4  7  1  0  0  0
  4  8  2  0  0  0
  5  7  2  0  0  0
  5 13  1  0  0  0
  6  8  1  0  0  0
  6 14  1  0  0  0
  7 15  1  0  0  0
  8 16  1  0  0  0
  9 10  1  0  0  0
  9 17  1  0  0  0
  9 18  1  0  0  0
 10 11  1  0  0  0
 10 19  1  0  0  0
 10 20  1  0  0  0
 11 21  1  0  0  0
 11 22  1  0  0  0
 11 23  1  0  0  0
M  END
> <EXTREG>
4-butoxyphenol

> <# Confs.>
1

> <LIC50>
0.701

> <Name>
4-butoxyphenol

$$$$
  4-ethylphenol
XX    ILIB04271811163D

 19 19  0  0  1  0              1 V2000
    2.2041    0.0080    0.0080 O   0  0  0  0  0
    0.8450    0.0080    0.0080 C   0  0  0  0  0
   -1.9546    0.0080   -0.0080 C   0  0  0  0  0
    0.1450   -1.2114    0.0078 C   0  0  0  0  0
    0.1450    1.2129    0.0080 C   0  0  0  0  0
   -1.2549   -1.2129   -0.0080 C   0  0  0  0  0
   -1.2549    1.2129    0.0078 C   0  0  0  0  0
   -3.4600    0.0128   -0.0084 C   0  0  0  0  0
   -3.9717    1.4497   -0.0144 C   0  0  0  0  0
    2.5410    0.9824    0.0104 H   0  0  0  0  0
    0.6873   -2.1504    0.0078 H   0  0  0  0  0
    0.6868    2.1514    0.0144 H   0  0  0  0  0
   -1.7964   -2.1514   -0.0144 H   0  0  0  0  0
   -1.7969    2.1514    0.0078 H   0  0  0  0  0
   -3.8223   -0.5129   -0.8931 H   0  0  0  0  0
   -3.8242   -0.5137    0.8882 H   0  0  0  0  0
   -3.6084    1.9634    0.8892 H   0  0  0  0  0
   -3.6074    1.9644   -0.8921 H   0  0  0  0  0
   -5.0625    1.4502   -0.0104 H   0  0  0  0  0
  1  2  1  0  0  0
  1 10  1  0  0  0
  2  4  1  0  0  0
  2  5  2  0  0  0
  3  6  1  0  0  0
  3  7  2  0  0  0
  3  8  1  0  0  0
  4  6  2  0  0  0
  4 11  1  0  0  0
  5  7  1  0  0  0
  5 12  1  0  0  0
  6 13  1  0  0  0
  7 14  1  0  0  0
  8  9  1  0  0  0
  8 15  1  0  0  0
  8 16  1  0  0  0
  9 17  1  0  0  0
  9 18  1  0  0  0
  9 19  1  0  0  0
M  END
> <EXTREG>
4-ethylphenol

> <# Confs.>
1

> <LIC50>
0.205

> <Name>
4-ethylphenol

$$$$
  4-hydroxybenzaldehyde
XX    ILIB04271811163D

 15 15  0  0  1  0              1 V2000
    2.2041    0.0080    0.0080 O   0  0  0  0  0
   -4.0312    1.0527   -0.0084 O   0  0  0  0  0
    0.8450    0.0080    0.0080 C   0  0  0  0  0
   -1.9546    0.0080   -0.0080 C   0  0  0  0  0
    0.1450   -1.2114    0.0078 C   0  0  0  0  0
    0.1450    1.2129    0.0080 C   0  0  0  0  0
   -1.2549   -1.2129   -0.0080 C   0  0  0  0  0
   -1.2549    1.2129    0.0078 C   0  0  0  0  0
   -3.4248    0.0128   -0.0084 C   0  0  0  0  0
    2.5410    0.9824    0.0104 H   0  0  0  0  0
    0.6873   -2.1504    0.0078 H   0  0  0  0  0
    0.6868    2.1514    0.0144 H   0  0  0  0  0
   -1.7964   -2.1514   -0.0144 H   0  0  0  0  0
   -1.7969    2.1514    0.0078 H   0  0  0  0  0
   -3.9697   -0.9438   -0.0112 H   0  0  0  0  0
  1  3  1  0  0  0
  1 10  1  0  0  0
  2  9  2  0  0  0
  3  5  1  0  0  0
  3  6  2  0  0  0
  4  7  1  0  0  0
  4  8  2  0  0  0
  4  9  1  0  0  0
  5  7  2  0  0  0
  5 11  1  0  0  0
  6  8  1  0  0  0
  6 12  1  0  0  0
  7 13  1  0  0  0
  8 14  1  0  0  0
  9 15  1  0  0  0
M  END
> <EXTREG>
4-hydroxybenzaldehyde

> <# Confs.>
1

> <LIC50>
0.266

> <Name>
4-hydroxybenzaldehyde

$$$$
  2-6-di-tert-butyl-4-methylpenol
XX    ILIB04271811163D

 40 40  0  0  1  0              1 V2000
    2.2041    0.0080    0.0080 O   0  0  0  0  0
    0.8450    0.0080    0.0080 C   0  0  0  0  0
    0.1450   -1.2114    0.0078 C   0  0  0  0  0
    0.1450    1.2129    0.0080 C   0  0  0  0  0
   -1.9546    0.0080   -0.0080 C   0  0  0  0  0
   -1.2549   -1.2129   -0.0080 C   0  0  0  0  0
   -1.2549    1.2129    0.0078 C   0  0  0  0  0
    0.8979   -2.5146    0.0078 C   0  0  0  0  0
    0.8975    2.5156    0.0084 C   0  0  0  0  0
   -3.4600    0.0128   -0.0084 C   0  0  0  0  0
    0.5242   -3.3252    1.2603 C   0  0  0  0  0
    0.5259   -3.3242   -1.2612 C   0  0  0  0  0
    2.4160   -2.2314    0.0096 C   0  0  0  0  0
    1.7842    2.5967    1.2637 C   0  0  0  0  0
    1.7861    2.5977   -1.2578 C   0  0  0  0  0
   -0.1062    3.6895    0.0144 C   0  0  0  0  0
    2.5410    0.9824    0.0104 H   0  0  0  0  0
   -1.7964   -2.1514   -0.0144 H   0  0  0  0  0
   -1.7969    2.1514    0.0078 H   0  0  0  0  0
   -3.8223   -0.5129   -0.8931 H   0  0  0  0  0
   -3.8242   -0.5137    0.8882 H   0  0  0  0  0
   -3.8232    1.0293   -0.0152 H   0  0  0  0  0
    0.7869   -2.7529    2.1514 H   0  0  0  0  0
   -0.5481   -3.5244    1.2593 H   0  0  0  0  0
    1.0698   -4.2695    1.2603 H   0  0  0  0  0
   -0.5464   -3.5234   -1.2622 H   0  0  0  0  0
    0.7898   -2.7520   -2.1514 H   0  0  0  0  0
    1.0718   -4.2676   -1.2612 H   0  0  0  0  0
    2.6797   -1.6597   -0.8892 H   0  0  0  0  0
    2.6787   -1.6602    0.8923 H   0  0  0  0  0
    2.9619   -3.1768    0.0096 H   0  0  0  0  0
    1.1562    2.5391    2.1533 H   0  0  0  0  0
    2.4932    1.7681    1.2637 H   0  0  0  0  0
    2.3291    3.5420    1.2642 H   0  0  0  0  0
    2.4951    1.7690   -1.2578 H   0  0  0  0  0
    1.1597    2.5410   -2.1494 H   0  0  0  0  0
    2.3311    3.5430   -1.2573 H   0  0  0  0  0
   -0.7327    3.6318   -0.8892 H   0  0  0  0  0
   -0.7339    3.6318    0.8921 H   0  0  0  0  0
    0.4392    4.6348    0.0104 H   0  0  0  0  0
  1  2  1  0  0  0
  1 17  1  0  0  0
  2  3  1  0  0  0
  2  4  2  0  0  0
  3  6  2  0  0  0
  3  8  1  0  0  0
  4  7  1  0  0  0
  4  9  1  0  0  0
  5  6  1  0  0  0
  5  7  2  0  0  0
  5 10  1  0  0  0
  6 18  1  0  0  0
  7 19  1  0  0  0
  8 11  1  0  0  0
  8 12  1  0  0  0
  8 13  1  0  0  0
  9 14  1  0  0  0
  9 15  1  0  0  0
  9 16  1  0  0  0
 10 20  1  0  0  0
 10 21  1  0  0  0
 10 22  1  0  0  0
 11 23  1  0  0  0
 11 24  1  0  0  0
 11 25  1  0  0  0
 12 26  1  0  0  0
 12 27  1  0  0  0
 12 28  1  0  0  0
 13 29  1  0  0  0
 13 30  1  0  0  0
 13 31  1  0  0  0
 14 32  1  0  0  0
 14 33  1  0  0  0
 14 34  1  0  0  0
 15 35  1  0  0  0
 15 36  1  0  0  0
 15 37  1  0  0  0
 16 38  1  0  0  0
 16 39  1  0  0  0
 16 40  1  0  0  0
M  END
> <EXTREG>
2-6-di-tert-butyl-4-methylpenol

> <# Confs.>
1

> <LIC50>
1.796

> <Name>
2-6-di-tert-butyl-4-methylpenol

$$$$
  4-heptyloxyphenol
XX    ILIB04271811163D

 32 32  0  0  1  0              1 V2000
   -3.3145    0.0112   -0.0080 O   0  0  0  0  0
    2.2041    0.0080    0.0080 O   0  0  0  0  0
   -1.9546    0.0080   -0.0080 C   0  0  0  0  0
    0.8450    0.0080    0.0080 C   0  0  0  0  0
   -1.2549   -1.2129   -0.0080 C   0  0  0  0  0
   -1.2549    1.2129    0.0078 C   0  0  0  0  0
    0.1450   -1.2114    0.0078 C   0  0  0  0  0
    0.1450    1.2129    0.0080 C   0  0  0  0  0
   -3.7900    1.3452   -0.0144 C   0  0  0  0  0
   -5.3262    1.3452   -0.0116 C   0  0  0  0  0
   -5.8379    2.7939   -0.0104 C   0  0  0  0  0
   -7.3750    2.7949   -0.0148 C   0  0  0  0  0
   -7.8867    4.2441   -0.0140 C   0  0  0  0  0
   -9.4219    4.2441   -0.0092 C   0  0  0  0  0
    2.5410    0.9824    0.0104 H   0  0  0  0  0
   -1.7964   -2.1514   -0.0144 H   0  0  0  0  0
   -1.7969    2.1514    0.0078 H   0  0  0  0  0
    0.6873   -2.1504    0.0078 H   0  0  0  0  0
    0.6868    2.1514    0.0144 H   0  0  0  0  0
   -3.4268    1.8589    0.8894 H   0  0  0  0  0
   -3.4248    1.8599   -0.8921 H   0  0  0  0  0
   -5.6895    0.8315   -0.8940 H   0  0  0  0  0
   -5.6914    0.8308    0.8875 H   0  0  0  0  0
   -5.4746    3.3086    0.8884 H   0  0  0  0  0
   -5.4746    3.3086   -0.8928 H   0  0  0  0  0
   -7.7383    2.2803   -0.8948 H   0  0  0  0  0
   -7.7402    2.2803    0.8865 H   0  0  0  0  0
   -7.5234    4.7578    0.8877 H   0  0  0  0  0
   -7.5234    4.7578   -0.8938 H   0  0  0  0  0
   -9.7852    3.7305   -0.8958 H   0  0  0  0  0
   -9.7891    3.7295    0.8855 H   0  0  0  0  0
   -9.7852    5.2715   -0.0088 H   0  0  0  0  0
  1  3  1  0  0  0
  1  9  1  0  0  0
  2  4  1  0  0  0
  2 15  1  0  0  0
  3  5  1  0  0  0
  3  6  2  0  0  0
  4  7  1  0  0  0
  4  8  2  0  0  0
  5  7  2  0  0  0
  5 16  1  0  0  0
  6  8  1  0  0  0
  6 17  1  0  0  0
  7 18  1  0  0  0
  8 19  1  0  0  0
  9 10  1  0  0  0
  9 20  1  0  0  0
  9 21  1  0  0  0
 10 11  1  0  0  0
 10 22  1  0  0  0
 10 23  1  0  0  0
 11 12  1  0  0  0
 11 24  1  0  0  0
 11 25  1  0  0  0
 12 13  1  0  0  0
 12 26  1  0  0  0
 12 27  1  0  0  0
 13 14  1  0  0  0
 13 28  1  0  0  0
 13 29  1  0  0  0
 14 30  1  0  0  0
 14 31  1  0  0  0
 14 32  1  0  0  0
M  END
> <EXTREG>
4-heptyloxyphenol

> <# Confs.>
1

> <LIC50>
2.033

> <Name>
4-heptyloxyphenol

$$$$
  syringaldehyde
XX    ILIB04271811163D

 23 23  0  0  1  0              1 V2000
    0.8252   -2.3887    0.0078 O   0  0  0  0  0
    0.8250    2.3906    0.0080 O   0  0  0  0  0
    2.2041    0.0080    0.0080 O   0  0  0  0  0
   -4.0312    1.0527   -0.0084 O   0  0  0  0  0
    0.1450   -1.2114    0.0078 C   0  0  0  0  0
    0.1450    1.2129    0.0080 C   0  0  0  0  0
    0.8450    0.0080    0.0080 C   0  0  0  0  0
   -1.9546    0.0080   -0.0080 C   0  0  0  0  0
   -1.2549   -1.2129   -0.0080 C   0  0  0  0  0
   -1.2549    1.2129    0.0078 C   0  0  0  0  0
   -3.4248    0.0128   -0.0084 C   0  0  0  0  0
    2.2266   -2.1279    0.0088 C   0  0  0  0  0
   -0.1017    3.4736    0.0144 C   0  0  0  0  0
    2.5410    0.9824    0.0104 H   0  0  0  0  0
   -1.7964   -2.1514   -0.0144 H   0  0  0  0  0
   -1.7969    2.1514    0.0078 H   0  0  0  0  0
   -3.9697   -0.9438   -0.0112 H   0  0  0  0  0
    2.4912   -1.5557   -0.8892 H   0  0  0  0  0
    2.4893   -1.5562    0.8921 H   0  0  0  0  0
    2.7725   -3.0723    0.0088 H   0  0  0  0  0
   -0.7283    3.4170   -0.8894 H   0  0  0  0  0
   -0.7295    3.4160    0.8921 H   0  0  0  0  0
    0.4437    4.4180    0.0100 H   0  0  0  0  0
  1  5  1  0  0  0
  1 12  1  0  0  0
  2  6  1  0  0  0
  2 13  1  0  0  0
  3  7  1  0  0  0
  3 14  1  0  0  0
  4 11  2  0  0  0
  5  7  1  0  0  0
  5  9  2  0  0  0
  6  7  2  0  0  0
  6 10  1  0  0  0
  8  9  1  0  0  0
  8 10  2  0  0  0
  8 11  1  0  0  0
  9 15  1  0  0  0
 10 16  1  0  0  0
 11 17  1  0  0  0
 12 18  1  0  0  0
 12 19  1  0  0  0
 12 20  1  0  0  0
 13 21  1  0  0  0
 13 22  1  0  0  0
 13 23  1  0  0  0
M  END
> <EXTREG>
syringaldehyde

> <# Confs.>
1

> <LIC50>
0.168

> <Name>
syringaldehyde

$$$$
  4-tert-octylphenol
XX    ILIB04271811163D

 37 37  0  0  1  0              1 V2000
    2.2041    0.0080    0.0080 O   0  0  0  0  0
    0.8450    0.0080    0.0080 C   0  0  0  0  0
   -1.9546    0.0080   -0.0080 C   0  0  0  0  0
    0.1450   -1.2114    0.0078 C   0  0  0  0  0
    0.1450    1.2129    0.0080 C   0  0  0  0  0
   -1.2549   -1.2129   -0.0080 C   0  0  0  0  0
   -1.2549    1.2129    0.0078 C   0  0  0  0  0
   -3.4600    0.0128   -0.0084 C   0  0  0  0  0
   -7.5645    2.8994   -0.0152 C   0  0  0  0  0
   -3.9717    1.4497   -0.0144 C   0  0  0  0  0
   -6.0195    2.8984   -0.0108 C   0  0  0  0  0
   -5.5078    1.4502   -0.0116 C   0  0  0  0  0
   -8.0781    2.1719   -1.2651 C   0  0  0  0  0
   -8.0781    2.1709    1.2563 C   0  0  0  0  0
   -8.0781    4.3555   -0.0144 C   0  0  0  0  0
    2.5410    0.9824    0.0104 H   0  0  0  0  0
    0.6873   -2.1504    0.0078 H   0  0  0  0  0
    0.6868    2.1514    0.0144 H   0  0  0  0  0
   -1.7964   -2.1514   -0.0144 H   0  0  0  0  0
   -1.7969    2.1514    0.0078 H   0  0  0  0  0
   -3.8223   -0.5129   -0.8931 H   0  0  0  0  0
   -3.8242   -0.5137    0.8882 H   0  0  0  0  0
   -3.6084    1.9634    0.8892 H   0  0  0  0  0
   -3.6074    1.9644   -0.8921 H   0  0  0  0  0
   -5.6562    3.4131    0.8884 H   0  0  0  0  0
   -5.6562    3.4131   -0.8928 H   0  0  0  0  0
   -5.8711    0.9363   -0.8940 H   0  0  0  0  0
   -5.8730    0.9355    0.8872 H   0  0  0  0  0
   -7.7148    2.6865   -2.1553 H   0  0  0  0  0
   -7.7148    1.1436   -1.2656 H   0  0  0  0  0
   -9.1680    2.1719   -1.2661 H   0  0  0  0  0
   -7.7168    1.1421    1.2563 H   0  0  0  0  0
   -7.7168    2.6846    2.1475 H   0  0  0  0  0
   -9.1719    2.1709    1.2554 H   0  0  0  0  0
   -7.7168    4.8691    0.8877 H   0  0  0  0  0
   -7.7148    4.8691   -0.8938 H   0  0  0  0  0
   -9.1680    4.3555   -0.0088 H   0  0  0  0  0
  1  2  1  0  0  0
  1 16  1  0  0  0
  2  4  1  0  0  0
  2  5  2  0  0  0
  3  6  1  0  0  0
  3  7  2  0  0  0
  3  8  1  0  0  0
  4  6  2  0  0  0
  4 17  1  0  0  0
  5  7  1  0  0  0
  5 18  1  0  0  0
  6 19  1  0  0  0
  7 20  1  0  0  0
  8 10  1  0  0  0
  8 21  1  0  0  0
  8 22  1  0  0  0
  9 11  1  0  0  0
  9 13  1  0  0  0
  9 14  1  0  0  0
  9 15  1  0  0  0
 10 12  1  0  0  0
 10 23  1  0  0  0
 10 24  1  0  0  0
 11 12  1  0  0  0
 11 25  1  0  0  0
 11 26  1  0  0  0
 12 27  1  0  0  0
 12 28  1  0  0  0
 13 29  1  0  0  0
 13 30  1  0  0  0
 13 31  1  0  0  0
 14 32  1  0  0  0
 14 33  1  0  0  0
 14 34  1  0  0  0
 15 35  1  0  0  0
 15 36  1  0  0  0
 15 37  1  0  0  0
M  END
> <EXTREG>
4-tert-octylphenol

> <# Confs.>
1

> <LIC50>
2.097

> <Name>
4-tert-octylphenol

$$$$
  4-chloro-3-ethylphenol
XX    ILIB04271811163D

 19 19  0  0  1  0              1 V2000
   -3.6543    0.0128   -0.0088 Cl  0  0  0  0  0
    2.2041    0.0080    0.0080 O   0  0  0  0  0
   -1.9546    0.0080   -0.0080 C   0  0  0  0  0
    0.8450    0.0080    0.0080 C   0  0  0  0  0
   -1.2549   -1.2129   -0.0080 C   0  0  0  0  0
   -1.2549    1.2129    0.0078 C   0  0  0  0  0
    0.1450   -1.2114    0.0078 C   0  0  0  0  0
    0.1450    1.2129    0.0080 C   0  0  0  0  0
   -2.0068   -2.5156   -0.0084 C   0  0  0  0  0
   -3.5176   -2.2354   -0.0120 C   0  0  0  0  0
    2.5410    0.9824    0.0104 H   0  0  0  0  0
   -1.7969    2.1514    0.0078 H   0  0  0  0  0
    0.6873   -2.1504    0.0078 H   0  0  0  0  0
    0.6868    2.1514    0.0144 H   0  0  0  0  0
   -1.7427   -3.0879   -0.8928 H   0  0  0  0  0
   -1.7441   -3.0879    0.8887 H   0  0  0  0  0
   -3.7822   -1.6641    0.8877 H   0  0  0  0  0
   -3.7812   -1.6631   -0.8938 H   0  0  0  0  0
   -4.0625   -3.1807   -0.0152 H   0  0  0  0  0
  1  3  1  0  0  0
  2  4  1  0  0  0
  2 11  1  0  0  0
  3  5  1  0  0  0
  3  6  2  0  0  0
  4  7  1  0  0  0
  4  8  2  0  0  0
  5  7  2  0  0  0
  5  9  1  0  0  0
  6  8  1  0  0  0
  6 12  1  0  0  0
  7 13  1  0  0  0
  8 14  1  0  0  0
  9 10  1  0  0  0
  9 15  1  0  0  0
  9 16  1  0  0  0
 10 17  1  0  0  0
 10 18  1  0  0  0
 10 19  1  0  0  0
M  END
> <EXTREG>
4-chloro-3-ethylphenol

> <# Confs.>
1

> <LIC50>
1.081

> <Name>
4-chloro-3-ethylphenol

$$$$
  4-methylcyanophenol
XX    ILIB04271811163D

 21 21  0  0  1  0              1 V2000
    2.2041    0.0080    0.0080 O   0  0  0  0  0
   -5.4434    1.4121   -0.0116 N   0  0  0  0  0
    0.8450    0.0080    0.0080 C   0  0  0  0  0
   -1.9546    0.0080   -0.0080 C   0  0  0  0  0
    0.1450   -1.2114    0.0078 C   0  0  0  0  0
    0.1450    1.2129    0.0080 C   0  0  0  0  0
   -1.2549   -1.2129   -0.0080 C   0  0  0  0  0
   -1.2549    1.2129    0.0078 C   0  0  0  0  0
   -3.9717    1.4497   -0.0144 C   0  0  0  0  0
   -3.4600    0.0128   -0.0084 C   0  0  0  0  0
    2.5410    0.9824    0.0104 H   0  0  0  0  0
   -5.7676    0.9285    0.8196 H   0  0  0  0  0
   -5.8027    2.3535   -0.0112 H   0  0  0  0  0
    0.6873   -2.1504    0.0078 H   0  0  0  0  0
    0.6868    2.1514    0.0144 H   0  0  0  0  0
   -1.7964   -2.1514   -0.0144 H   0  0  0  0  0
   -1.7969    2.1514    0.0078 H   0  0  0  0  0
   -3.6064    1.9805    0.8787 H   0  0  0  0  0
   -3.6143    1.9688   -0.8921 H   0  0  0  0  0
   -3.8223   -0.5129   -0.8931 H   0  0  0  0  0
   -3.8242   -0.5137    0.8882 H   0  0  0  0  0
  1  3  1  0  0  0
  1 11  1  0  0  0
  2  9  1  0  0  0
  2 12  1  0  0  0
  2 13  1  0  0  0
  3  5  1  0  0  0
  3  6  2  0  0  0
  4  7  1  0  0  0
  4  8  2  0  0  0
  4 10  1  0  0  0
  5  7  2  0  0  0
  5 14  1  0  0  0
  6  8  1  0  0  0
  6 15  1  0  0  0
  7 16  1  0  0  0
  8 17  1  0  0  0
  9 10  1  0  0  0
  9 18  1  0  0  0
  9 19  1  0  0  0
 10 20  1  0  0  0
 10 21  1  0  0  0
M  END
> <EXTREG>
4-methylcyanophenol

> <# Confs.>
1

> <LIC50>
-0.384

> <Name>
4-methylcyanophenol

$$$$
  3-methoxysalicylaldehyde
XX    ILIB04271811163D

 19 19  0  0  1  0              1 V2000
   -3.3145    0.0112   -0.0080 O   0  0  0  0  0
    2.2041    0.0080    0.0080 O   0  0  0  0  0
    2.0947   -2.4834    0.0144 O   0  0  0  0  0
   -1.9546    0.0080   -0.0080 C   0  0  0  0  0
    0.8450    0.0080    0.0080 C   0  0  0  0  0
    0.1450   -1.2114    0.0078 C   0  0  0  0  0
   -1.2549   -1.2129   -0.0080 C   0  0  0  0  0
   -1.2549    1.2129    0.0078 C   0  0  0  0  0
    0.1450    1.2129    0.0080 C   0  0  0  0  0
    0.8804   -2.4844    0.0078 C   0  0  0  0  0
   -3.7900    1.3452   -0.0144 C   0  0  0  0  0
    2.5410    0.9824    0.0104 H   0  0  0  0  0
   -1.7964   -2.1514   -0.0144 H   0  0  0  0  0
   -1.7969    2.1514    0.0078 H   0  0  0  0  0
    0.6868    2.1514    0.0144 H   0  0  0  0  0
    0.3352   -3.4297   -0.0128 H   0  0  0  0  0
   -3.4268    1.8589    0.8894 H   0  0  0  0  0
   -3.4248    1.8599   -0.8921 H   0  0  0  0  0
   -4.8809    1.3452   -0.0100 H   0  0  0  0  0
  1  4  1  0  0  0
  1 11  1  0  0  0
  2  5  1  0  0  0
  2 12  1  0  0  0
  3 10  2  0  0  0
  4  7  1  0  0  0
  4  8  2  0  0  0
  5  6  1  0  0  0
  5  9  2  0  0  0
  6  7  2  0  0  0
  6 10  1  0  0  0
  7 13  1  0  0  0
  8  9  1  0  0  0
  8 14  1  0  0  0
  9 15  1  0  0  0
 10 16  1  0  0  0
 11 17  1  0  0  0
 11 18  1  0  0  0
 11 19  1  0  0  0
M  END
> <EXTREG>
3-methoxysalicylaldehyde

> <# Confs.>
1

> <LIC50>
0.377

> <Name>
3-methoxysalicylaldehyde

$$$$
  3-methoxyphenol
XX    ILIB04271811163D

 17 17  0  0  1  0              1 V2000
   -0.7717    2.3906    0.0104 O   0  0  0  0  0
    3.3672    0.0096    0.0132 O   0  0  0  0  0
   -0.0919    1.2129    0.0104 C   0  0  0  0  0
    2.0078    0.0096    0.0092 C   0  0  0  0  0
    1.3076    1.2129    0.0092 C   0  0  0  0  0
   -0.7920    0.0096    0.0096 C   0  0  0  0  0
    1.3076   -1.2114    0.0104 C   0  0  0  0  0
   -0.0919   -1.2129    0.0096 C   0  0  0  0  0
    0.1547    3.4736    0.0096 C   0  0  0  0  0
    3.7041    0.9824    0.0156 H   0  0  0  0  0
    1.8496    2.1514    0.0124 H   0  0  0  0  0
   -1.8755    0.0112   -0.0080 H   0  0  0  0  0
    1.8501   -2.1504    0.0104 H   0  0  0  0  0
   -0.6338   -2.1514   -0.0080 H   0  0  0  0  0
    0.7812    3.4160    0.8936 H   0  0  0  0  0
    0.7825    3.4170   -0.8879 H   0  0  0  0  0
   -0.3907    4.4180    0.0096 H   0  0  0  0  0
  1  3  1  0  0  0
  1  9  1  0  0  0
  2  4  1  0  0  0
  2 10  1  0  0  0
  3  5  1  0  0  0
  3  6  2  0  0  0
  4  5  2  0  0  0
  4  7  1  0  0  0
  5 11  1  0  0  0
  6  8  1  0  0  0
  6 12  1  0  0  0
  7  8  2  0  0  0
  7 13  1  0  0  0
  8 14  1  0  0  0
  9 15  1  0  0  0
  9 16  1  0  0  0
  9 17  1  0  0  0
M  END
> <EXTREG>
3-methoxyphenol

> <# Confs.>
1

> <LIC50>
-0.326

> <Name>
3-methoxyphenol

$$$$
  4-methoxyphenol
XX    ILIB04271811163D

 17 17  0  0  1  0              1 V2000
   -2.1514    0.0128   -0.0112 O   0  0  0  0  0
    3.3672    0.0096    0.0132 O   0  0  0  0  0
   -0.7920    0.0096    0.0096 C   0  0  0  0  0
    2.0078    0.0096    0.0092 C   0  0  0  0  0
   -0.0919   -1.2129    0.0096 C   0  0  0  0  0
   -0.0919    1.2129    0.0104 C   0  0  0  0  0
    1.3076   -1.2114    0.0104 C   0  0  0  0  0
    1.3076    1.2129    0.0092 C   0  0  0  0  0
   -2.6270    1.3452   -0.0080 C   0  0  0  0  0
    3.7041    0.9824    0.0156 H   0  0  0  0  0
   -0.6338   -2.1514   -0.0080 H   0  0  0  0  0
   -0.6338    2.1514    0.0104 H   0  0  0  0  0
    1.8501   -2.1504    0.0104 H   0  0  0  0  0
    1.8501    2.1514    0.0124 H   0  0  0  0  0
   -2.2637    1.8589    0.8906 H   0  0  0  0  0
   -2.2627    1.8599   -0.8906 H   0  0  0  0  0
   -3.7178    1.3452   -0.0096 H   0  0  0  0  0
  1  3  1  0  0  0
  1  9  1  0  0  0
  2  4  1  0  0  0
  2 10  1  0  0  0
  3  5  1  0  0  0
  3  6  2  0  0  0
  4  7  1  0  0  0
  4  8  2  0  0  0
  5  7  2  0  0  0
  5 11  1  0  0  0
  6  8  1  0  0  0
  6 12  1  0  0  0
  7 13  1  0  0  0
  8 14  1  0  0  0
  9 15  1  0  0  0
  9 16  1  0  0  0
  9 17  1  0  0  0
M  END
> <EXTREG>
4-methoxyphenol

> <# Confs.>
1

> <LIC50>
-0.143

> <Name>
4-methoxyphenol

$$$$
  4-cyclopentylphenol
XX    ILIB04271811163D

 26 27  0  0  1  0              1 V2000
    3.9102   -0.0693    0.6599 O   0  0  0  0  0
    2.5508   -0.0693    0.6589 C   0  0  0  0  0
   -0.2488   -0.0693    0.6570 C   0  0  0  0  0
    1.8511   -1.2812    0.6580 C   0  0  0  0  0
    1.8511    1.1431    0.6589 C   0  0  0  0  0
    0.4510   -1.2822    0.6570 C   0  0  0  0  0
    0.4510    1.1431    0.6580 C   0  0  0  0  0
   -1.7534   -0.0690    0.6558 C   0  0  0  0  0
   -2.3047    1.3579    0.6570 C   0  0  0  0  0
   -2.3037   -0.6375   -0.6531 C   0  0  0  0  0
   -3.7393    1.1953    0.1285 C   0  0  0  0  0
   -3.7344   -0.0804   -0.7283 C   0  0  0  0  0
    4.2461    0.9126    0.6606 H   0  0  0  0  0
    2.3926   -2.2197    0.6580 H   0  0  0  0  0
    2.3926    2.0811    0.6597 H   0  0  0  0  0
   -0.0907   -2.2207    0.6562 H   0  0  0  0  0
   -0.0909    2.0811    0.6580 H   0  0  0  0  0
   -2.0391   -0.6467    1.5361 H   0  0  0  0  0
   -2.2676    1.8232    1.6426 H   0  0  0  0  0
   -1.7188    2.0010   -0.0080 H   0  0  0  0  0
   -1.7002   -0.3596   -1.5181 H   0  0  0  0  0
   -2.3135   -1.7280   -0.6287 H   0  0  0  0  0
   -4.4590    1.1265    0.9448 H   0  0  0  0  0
   -4.0195    2.0576   -0.4773 H   0  0  0  0  0
   -4.0273    0.1295   -1.7578 H   0  0  0  0  0
   -4.4453   -0.8062   -0.3307 H   0  0  0  0  0
  1  2  1  0  0  0
  1 13  1  0  0  0
  2  4  1  0  0  0
  2  5  2  0  0  0
  3  6  1  0  0  0
  3  7  2  0  0  0
  3  8  1  0  0  0
  4  6  2  0  0  0
  4 14  1  0  0  0
  5  7  1  0  0  0
  5 15  1  0  0  0
  6 16  1  0  0  0
  7 17  1  0  0  0
  8  9  1  0  0  0
  8 10  1  0  0  0
  8 18  1  0  0  0
  9 11  1  0  0  0
  9 19  1  0  0  0
  9 20  1  0  0  0
 10 12  1  0  0  0
 10 21  1  0  0  0
 10 22  1  0  0  0
 11 12  1  0  0  0
 11 23  1  0  0  0
 11 24  1  0  0  0
 12 25  1  0  0  0
 12 26  1  0  0  0
M  END
> <EXTREG>
4-cyclopentylphenol

> <# Confs.>
1

> <LIC50>
1.292

> <Name>
4-cyclopentylphenol

$$$$
  4-chloro-2-methylphenol
XX    ILIB04271811163D

 16 16  0  0  1  0              1 V2000
   -3.6543    0.0128   -0.0088 Cl  0  0  0  0  0
    2.2041    0.0080    0.0080 O   0  0  0  0  0
   -1.9546    0.0080   -0.0080 C   0  0  0  0  0
    0.8450    0.0080    0.0080 C   0  0  0  0  0
    0.1450   -1.2114    0.0078 C   0  0  0  0  0
   -1.2549   -1.2129   -0.0080 C   0  0  0  0  0
   -1.2549    1.2129    0.0078 C   0  0  0  0  0
    0.1450    1.2129    0.0080 C   0  0  0  0  0
    0.8979   -2.5146    0.0078 C   0  0  0  0  0
    2.5410    0.9824    0.0104 H   0  0  0  0  0
   -1.7964   -2.1514   -0.0144 H   0  0  0  0  0
   -1.7969    2.1514    0.0078 H   0  0  0  0  0
    0.6868    2.1514    0.0144 H   0  0  0  0  0
    0.6338   -3.0869    0.8904 H   0  0  0  0  0
    0.6350   -3.0859   -0.8911 H   0  0  0  0  0
    1.9702   -2.3145    0.0128 H   0  0  0  0  0
  1  3  1  0  0  0
  2  4  1  0  0  0
  2 10  1  0  0  0
  3  6  1  0  0  0
  3  7  2  0  0  0
  4  5  1  0  0  0
  4  8  2  0  0  0
  5  6  2  0  0  0
  5  9  1  0  0  0
  6 11  1  0  0  0
  7  8  1  0  0  0
  7 12  1  0  0  0
  8 13  1  0  0  0
  9 14  1  0  0  0
  9 15  1  0  0  0
  9 16  1  0  0  0
M  END
> <EXTREG>
4-chloro-2-methylphenol

> <# Confs.>
1

> <LIC50>
0.701

> <Name>
4-chloro-2-methylphenol

$$$$
  2-allylphenol
XX    ILIB04271811163D

 20 20  0  0  1  0              1 V2000
    2.2041    0.0080    0.0080 O   0  0  0  0  0
    0.8450    0.0080    0.0080 C   0  0  0  0  0
    0.1450   -1.2114    0.0078 C   0  0  0  0  0
    0.1450    1.2129    0.0080 C   0  0  0  0  0
   -1.2549   -1.2129   -0.0080 C   0  0  0  0  0
   -1.2549    1.2129    0.0078 C   0  0  0  0  0
   -1.9546    0.0080   -0.0080 C   0  0  0  0  0
    0.8979   -2.5146    0.0078 C   0  0  0  0  0
    2.3818   -2.2383    0.0096 C   0  0  0  0  0
    3.2500   -3.2529    0.0112 C   0  0  0  0  0
    2.5410    0.9824    0.0104 H   0  0  0  0  0
    0.6868    2.1514    0.0144 H   0  0  0  0  0
   -1.7964   -2.1514   -0.0144 H   0  0  0  0  0
   -1.7969    2.1514    0.0078 H   0  0  0  0  0
   -3.0381    0.0112   -0.0144 H   0  0  0  0  0
    0.6338   -3.0869    0.8904 H   0  0  0  0  0
    0.6350   -3.0859   -0.8911 H   0  0  0  0  0
    2.7451   -1.2095    0.0152 H   0  0  0  0  0
    2.8867   -4.2812    0.0112 H   0  0  0  0  0
    4.3223   -3.0527    0.0088 H   0  0  0  0  0
  1  2  1  0  0  0
  1 11  1  0  0  0
  2  3  1  0  0  0
  2  4  2  0  0  0
  3  5  2  0  0  0
  3  8  1  0  0  0
  4  6  1  0  0  0
  4 12  1  0  0  0
  5  7  1  0  0  0
  5 13  1  0  0  0
  6  7  2  0  0  0
  6 14  1  0  0  0
  7 15  1  0  0  0
  8  9  1  0  0  0
  8 16  1  0  0  0
  8 17  1  0  0  0
  9 10  2  0  0  0
  9 18  1  0  0  0
 10 19  1  0  0  0
 10 20  1  0  0  0
M  END
> <EXTREG>
2-allylphenol

> <# Confs.>
1

> <LIC50>
0.334

> <Name>
2-allylphenol

$$$$
  6-tert-butyl-2-4-dimethylphenol
XX    ILIB04271811163D

 31 31  0  0  1  0              1 V2000
    2.2041    0.0080    0.0080 O   0  0  0  0  0
    0.8450    0.0080    0.0080 C   0  0  0  0  0
    0.1450    1.2129    0.0080 C   0  0  0  0  0
    0.1450   -1.2114    0.0078 C   0  0  0  0  0
   -1.9546    0.0080   -0.0080 C   0  0  0  0  0
   -1.2549    1.2129    0.0078 C   0  0  0  0  0
   -1.2549   -1.2129   -0.0080 C   0  0  0  0  0
    0.8975    2.5156    0.0084 C   0  0  0  0  0
    0.8979   -2.5146    0.0078 C   0  0  0  0  0
   -3.4600    0.0128   -0.0084 C   0  0  0  0  0
    1.7842    2.5967    1.2637 C   0  0  0  0  0
    1.7861    2.5977   -1.2578 C   0  0  0  0  0
   -0.1062    3.6895    0.0144 C   0  0  0  0  0
    2.5410    0.9824    0.0104 H   0  0  0  0  0
   -1.7969    2.1514    0.0078 H   0  0  0  0  0
   -1.7964   -2.1514   -0.0144 H   0  0  0  0  0
    0.6338   -3.0869    0.8904 H   0  0  0  0  0
    0.6350   -3.0859   -0.8911 H   0  0  0  0  0
    1.9702   -2.3145    0.0128 H   0  0  0  0  0
   -3.8223   -0.5129   -0.8931 H   0  0  0  0  0
   -3.8242   -0.5137    0.8882 H   0  0  0  0  0
   -3.8232    1.0293   -0.0152 H   0  0  0  0  0
    1.1562    2.5391    2.1533 H   0  0  0  0  0
    2.4932    1.7681    1.2637 H   0  0  0  0  0
    2.3291    3.5420    1.2642 H   0  0  0  0  0
    2.4951    1.7690   -1.2578 H   0  0  0  0  0
    1.1597    2.5410   -2.1494 H   0  0  0  0  0
    2.3311    3.5430   -1.2573 H   0  0  0  0  0
   -0.7327    3.6318   -0.8892 H   0  0  0  0  0
   -0.7339    3.6318    0.8921 H   0  0  0  0  0
    0.4392    4.6348    0.0104 H   0  0  0  0  0
  1  2  1  0  0  0
  1 14  1  0  0  0
  2  3  2  0  0  0
  2  4  1  0  0  0
  3  6  1  0  0  0
  3  8  1  0  0  0
  4  7  2  0  0  0
  4  9  1  0  0  0
  5  6  2  0  0  0
  5  7  1  0  0  0
  5 10  1  0  0  0
  6 15  1  0  0  0
  7 16  1  0  0  0
  8 11  1  0  0  0
  8 12  1  0  0  0
  8 13  1  0  0  0
  9 17  1  0  0  0
  9 18  1  0  0  0
  9 19  1  0  0  0
 10 20  1  0  0  0
 10 21  1  0  0  0
 10 22  1  0  0  0
 11 23  1  0  0  0
 11 24  1  0  0  0
 11 25  1  0  0  0
 12 26  1  0  0  0
 12 27  1  0  0  0
 12 28  1  0  0  0
 13 29  1  0  0  0
 13 30  1  0  0  0
 13 31  1  0  0  0
M  END
> <EXTREG>
6-tert-butyl-2-4-dimethylphenol

> <# Confs.>
1

> <LIC50>
1.157

> <Name>
6-tert-butyl-2-4-dimethylphenol

$$$$
  4-hexyloxyphenol
XX    ILIB04271811163D

 32 32  0  0  1  0              1 V2000
   -3.3145    0.0112   -0.0080 O   0  0  0  0  0
    2.2041    0.0080    0.0080 O   0  0  0  0  0
   -1.9546    0.0080   -0.0080 C   0  0  0  0  0
    0.8450    0.0080    0.0080 C   0  0  0  0  0
   -1.2549   -1.2129   -0.0080 C   0  0  0  0  0
   -1.2549    1.2129    0.0078 C   0  0  0  0  0
    0.1450   -1.2114    0.0078 C   0  0  0  0  0
    0.1450    1.2129    0.0080 C   0  0  0  0  0
   -3.7900    1.3452   -0.0144 C   0  0  0  0  0
   -5.3262    1.3452   -0.0116 C   0  0  0  0  0
   -5.8379    2.7939   -0.0104 C   0  0  0  0  0
   -7.3750    2.7949   -0.0148 C   0  0  0  0  0
   -7.8867    4.2441   -0.0140 C   0  0  0  0  0
   -9.4219    4.2441   -0.0092 C   0  0  0  0  0
    2.5410    0.9824    0.0104 H   0  0  0  0  0
   -1.7964   -2.1514   -0.0144 H   0  0  0  0  0
   -1.7969    2.1514    0.0078 H   0  0  0  0  0
    0.6873   -2.1504    0.0078 H   0  0  0  0  0
    0.6868    2.1514    0.0144 H   0  0  0  0  0
   -3.4268    1.8589    0.8894 H   0  0  0  0  0
   -3.4248    1.8599   -0.8921 H   0  0  0  0  0
   -5.6895    0.8315   -0.8940 H   0  0  0  0  0
   -5.6914    0.8308    0.8875 H   0  0  0  0  0
   -5.4746    3.3086    0.8884 H   0  0  0  0  0
   -5.4746    3.3086   -0.8928 H   0  0  0  0  0
   -7.7383    2.2803   -0.8948 H   0  0  0  0  0
   -7.7402    2.2803    0.8865 H   0  0  0  0  0
   -7.5234    4.7578    0.8877 H   0  0  0  0  0
   -7.5234    4.7578   -0.8938 H   0  0  0  0  0
   -9.7852    3.7305   -0.8958 H   0  0  0  0  0
   -9.7891    3.7295    0.8855 H   0  0  0  0  0
   -9.7852    5.2715   -0.0088 H   0  0  0  0  0
  1  3  1  0  0  0
  1  9  1  0  0  0
  2  4  1  0  0  0
  2 15  1  0  0  0
  3  5  1  0  0  0
  3  6  2  0  0  0
  4  7  1  0  0  0
  4  8  2  0  0  0
  5  7  2  0  0  0
  5 16  1  0  0  0
  6  8  1  0  0  0
  6 17  1  0  0  0
  7 18  1  0  0  0
  8 19  1  0  0  0
  9 10  1  0  0  0
  9 20  1  0  0  0
  9 21  1  0  0  0
 10 11  1  0  0  0
 10 22  1  0  0  0
 10 23  1  0  0  0
 11 12  1  0  0  0
 11 24  1  0  0  0
 11 25  1  0  0  0
 12 13  1  0  0  0
 12 26  1  0  0  0
 12 27  1  0  0  0
 13 14  1  0  0  0
 13 28  1  0  0  0
 13 29  1  0  0  0
 14 30  1  0  0  0
 14 31  1  0  0  0
 14 32  1  0  0  0
M  END
> <EXTREG>
4-hexyloxyphenol

> <# Confs.>
1

> <LIC50>
1.638

> <Name>
4-hexyloxyphenol

$$$$
  methyl-3-hydroxybenzoate
XX    ILIB04271811163D

 19 19  0  0  1  0              1 V2000
    2.2041    0.0080    0.0080 O   0  0  0  0  0
   -1.3818   -3.5381   -0.0080 O   0  0  0  0  0
   -3.4150   -2.4863   -0.0124 O   0  0  0  0  0
    0.8450    0.0080    0.0080 C   0  0  0  0  0
   -1.2549   -1.2129   -0.0080 C   0  0  0  0  0
    0.1450   -1.2114    0.0078 C   0  0  0  0  0
    0.1450    1.2129    0.0080 C   0  0  0  0  0
   -1.9546    0.0080   -0.0080 C   0  0  0  0  0
   -1.2549    1.2129    0.0078 C   0  0  0  0  0
   -1.9897   -2.4854   -0.0080 C   0  0  0  0  0
   -3.8906   -3.8301   -0.0080 C   0  0  0  0  0
    2.5410    0.9824    0.0104 H   0  0  0  0  0
    0.6873   -2.1504    0.0078 H   0  0  0  0  0
    0.6868    2.1514    0.0144 H   0  0  0  0  0
   -3.0381    0.0112   -0.0144 H   0  0  0  0  0
   -1.7969    2.1514    0.0078 H   0  0  0  0  0
   -3.5264   -4.3438   -0.8945 H   0  0  0  0  0
   -3.5273   -4.3438    0.8867 H   0  0  0  0  0
   -4.9805   -3.8311   -0.0094 H   0  0  0  0  0
  1  4  1  0  0  0
  1 12  1  0  0  0
  2 10  2  0  0  0
  3 10  1  0  0  0
  3 11  1  0  0  0
  4  6  1  0  0  0
  4  7  2  0  0  0
  5  6  2  0  0  0
  5  8  1  0  0  0
  5 10  1  0  0  0
  6 13  1  0  0  0
  7  9  1  0  0  0
  7 14  1  0  0  0
  8  9  2  0  0  0
  8 15  1  0  0  0
  9 16  1  0  0  0
 11 17  1  0  0  0
 11 18  1  0  0  0
 11 19  1  0  0  0
M  END
> <EXTREG>
methyl-3-hydroxybenzoate

> <# Confs.>
1

> <LIC50>
-0.046

> <Name>
methyl-3-hydroxybenzoate

$$$$
  5-bromo-2-hydroxybenzyl_alcohol
XX    ILIB04271811163D

 17 17  0  0  1  0              1 V2000
   -3.8047    0.0128   -0.0092 Br  0  0  0  0  0
    2.2041    0.0080    0.0080 O   0  0  0  0  0
    2.2998   -2.2529    0.0088 O   0  0  0  0  0
   -1.9546    0.0080   -0.0080 C   0  0  0  0  0
    0.8450    0.0080    0.0080 C   0  0  0  0  0
    0.1450   -1.2114    0.0078 C   0  0  0  0  0
   -1.2549   -1.2129   -0.0080 C   0  0  0  0  0
   -1.2549    1.2129    0.0078 C   0  0  0  0  0
    0.1450    1.2129    0.0080 C   0  0  0  0  0
    0.8979   -2.5146    0.0078 C   0  0  0  0  0
    2.5410    0.9824    0.0104 H   0  0  0  0  0
    2.8096   -3.1572    0.0088 H   0  0  0  0  0
   -1.7964   -2.1514   -0.0144 H   0  0  0  0  0
   -1.7969    2.1514    0.0078 H   0  0  0  0  0
    0.6868    2.1514    0.0144 H   0  0  0  0  0
    0.6338   -3.0869    0.8904 H   0  0  0  0  0
    0.6350   -3.0859   -0.8911 H   0  0  0  0  0
  1  4  1  0  0  0
  2  5  1  0  0  0
  2 11  1  0  0  0
  3 10  1  0  0  0
  3 12  1  0  0  0
  4  7  1  0  0  0
  4  8  2  0  0  0
  5  6  1  0  0  0
  5  9  2  0  0  0
  6  7  2  0  0  0
  6 10  1  0  0  0
  7 13  1  0  0  0
  8  9  1  0  0  0
  8 14  1  0  0  0
  9 15  1  0  0  0
 10 16  1  0  0  0
 10 17  1  0  0  0
M  END
> <EXTREG>
5-bromo-2-hydroxybenzyl_alcohol

> <# Confs.>
1

> <LIC50>
0.343

> <Name>
5-bromo-2-hydroxybenzyl_alcohol

$$$$
  4-bromo-2-6-dimethylphenol
XX    ILIB04271811163D

 19 19  0  0  1  0              1 V2000
   -3.8047    0.0128   -0.0092 Br  0  0  0  0  0
    2.2041    0.0080    0.0080 O   0  0  0  0  0
   -1.9546    0.0080   -0.0080 C   0  0  0  0  0
    0.8450    0.0080    0.0080 C   0  0  0  0  0
    0.1450   -1.2114    0.0078 C   0  0  0  0  0
    0.1450    1.2129    0.0080 C   0  0  0  0  0
   -1.2549   -1.2129   -0.0080 C   0  0  0  0  0
   -1.2549    1.2129    0.0078 C   0  0  0  0  0
    0.8979   -2.5146    0.0078 C   0  0  0  0  0
    0.8975    2.5156    0.0084 C   0  0  0  0  0
    2.5410    0.9824    0.0104 H   0  0  0  0  0
   -1.7964   -2.1514   -0.0144 H   0  0  0  0  0
   -1.7969    2.1514    0.0078 H   0  0  0  0  0
    0.6338   -3.0869    0.8904 H   0  0  0  0  0
    0.6350   -3.0859   -0.8911 H   0  0  0  0  0
    1.9702   -2.3145    0.0128 H   0  0  0  0  0
    1.5239    2.5732    0.8931 H   0  0  0  0  0
    1.5254    2.5742   -0.8882 H   0  0  0  0  0
    0.1885    3.3447    0.0152 H   0  0  0  0  0
  1  3  1  0  0  0
  2  4  1  0  0  0
  2 11  1  0  0  0
  3  7  1  0  0  0
  3  8  2  0  0  0
  4  5  1  0  0  0
  4  6  2  0  0  0
  5  7  2  0  0  0
  5  9  1  0  0  0
  6  8  1  0  0  0
  6 10  1  0  0  0
  7 12  1  0  0  0
  8 13  1  0  0  0
  9 14  1  0  0  0
  9 15  1  0  0  0
  9 16  1  0  0  0
 10 17  1  0  0  0
 10 18  1  0  0  0
 10 19  1  0  0  0
M  END
> <EXTREG>
4-bromo-2-6-dimethylphenol

> <# Confs.>
1

> <LIC50>
1.167

> <Name>
4-bromo-2-6-dimethylphenol

$$$$
  2-tert-butyl-4-methylphenol
XX    ILIB04271811163D

 28 28  0  0  1  0              1 V2000
    2.2041    0.0080    0.0080 O   0  0  0  0  0
    0.8450    0.0080    0.0080 C   0  0  0  0  0
    0.1450   -1.2114    0.0078 C   0  0  0  0  0
   -1.9546    0.0080   -0.0080 C   0  0  0  0  0
    0.1450    1.2129    0.0080 C   0  0  0  0  0
   -1.2549   -1.2129   -0.0080 C   0  0  0  0  0
   -1.2549    1.2129    0.0078 C   0  0  0  0  0
    0.8979   -2.5146    0.0078 C   0  0  0  0  0
   -3.4600    0.0128   -0.0084 C   0  0  0  0  0
    0.5242   -3.3252    1.2603 C   0  0  0  0  0
    0.5259   -3.3242   -1.2612 C   0  0  0  0  0
    2.4160   -2.2314    0.0096 C   0  0  0  0  0
    2.5410    0.9824    0.0104 H   0  0  0  0  0
    0.6868    2.1514    0.0144 H   0  0  0  0  0
   -1.7964   -2.1514   -0.0144 H   0  0  0  0  0
   -1.7969    2.1514    0.0078 H   0  0  0  0  0
   -3.8223   -0.5129   -0.8931 H   0  0  0  0  0
   -3.8242   -0.5137    0.8882 H   0  0  0  0  0
   -3.8232    1.0293   -0.0152 H   0  0  0  0  0
    0.7869   -2.7529    2.1514 H   0  0  0  0  0
   -0.5481   -3.5244    1.2593 H   0  0  0  0  0
    1.0698   -4.2695    1.2603 H   0  0  0  0  0
   -0.5464   -3.5234   -1.2622 H   0  0  0  0  0
    0.7898   -2.7520   -2.1514 H   0  0  0  0  0
    1.0718   -4.2676   -1.2612 H   0  0  0  0  0
    2.6797   -1.6597   -0.8892 H   0  0  0  0  0
    2.6787   -1.6602    0.8923 H   0  0  0  0  0
    2.9619   -3.1768    0.0096 H   0  0  0  0  0
  1  2  1  0  0  0
  1 13  1  0  0  0
  2  3  1  0  0  0
  2  5  2  0  0  0
  3  6  2  0  0  0
  3  8  1  0  0  0
  4  6  1  0  0  0
  4  7  2  0  0  0
  4  9  1  0  0  0
  5  7  1  0  0  0
  5 14  1  0  0  0
  6 15  1  0  0  0
  7 16  1  0  0  0
  8 10  1  0  0  0
  8 11  1  0  0  0
  8 12  1  0  0  0
  9 17  1  0  0  0
  9 18  1  0  0  0
  9 19  1  0  0  0
 10 20  1  0  0  0
 10 21  1  0  0  0
 10 22  1  0  0  0
 11 23  1  0  0  0
 11 24  1  0  0  0
 11 25  1  0  0  0
 12 26  1  0  0  0
 12 27  1  0  0  0
 12 28  1  0  0  0
M  END
> <EXTREG>
2-tert-butyl-4-methylphenol

> <# Confs.>
1

> <LIC50>
1.301

> <Name>
2-tert-butyl-4-methylphenol

$$$$
  2-3-6-trimethylphenol
XX    ILIB04271811163D

 22 22  0  0  1  0              1 V2000
    2.2041    0.0080    0.0080 O   0  0  0  0  0
    0.8450    0.0080    0.0080 C   0  0  0  0  0
    0.1450   -1.2114    0.0078 C   0  0  0  0  0
    0.1450    1.2129    0.0080 C   0  0  0  0  0
   -1.9546    0.0080   -0.0080 C   0  0  0  0  0
   -1.2549   -1.2129   -0.0080 C   0  0  0  0  0
   -1.2549    1.2129    0.0078 C   0  0  0  0  0
    0.8979   -2.5146    0.0078 C   0  0  0  0  0
    0.8975    2.5156    0.0084 C   0  0  0  0  0
   -3.4600    0.0128   -0.0084 C   0  0  0  0  0
    2.5410    0.9824    0.0104 H   0  0  0  0  0
   -1.7964   -2.1514   -0.0144 H   0  0  0  0  0
   -1.7969    2.1514    0.0078 H   0  0  0  0  0
    0.6338   -3.0869    0.8904 H   0  0  0  0  0
    0.6350   -3.0859   -0.8911 H   0  0  0  0  0
    1.9702   -2.3145    0.0128 H   0  0  0  0  0
    1.5239    2.5732    0.8931 H   0  0  0  0  0
    1.5254    2.5742   -0.8882 H   0  0  0  0  0
    0.1885    3.3447    0.0152 H   0  0  0  0  0
   -3.8223   -0.5129   -0.8931 H   0  0  0  0  0
   -3.8242   -0.5137    0.8882 H   0  0  0  0  0
   -3.8232    1.0293   -0.0152 H   0  0  0  0  0
  1  2  1  0  0  0
  1 11  1  0  0  0
  2  3  1  0  0  0
  2  4  2  0  0  0
  3  6  2  0  0  0
  3  8  1  0  0  0
  4  7  1  0  0  0
  4  9  1  0  0  0
  5  6  1  0  0  0
  5  7  2  0  0  0
  5 10  1  0  0  0
  6 12  1  0  0  0
  7 13  1  0  0  0
  8 14  1  0  0  0
  8 15  1  0  0  0
  8 16  1  0  0  0
  9 17  1  0  0  0
  9 18  1  0  0  0
  9 19  1  0  0  0
 10 20  1  0  0  0
 10 21  1  0  0  0
 10 22  1  0  0  0
M  END
> <EXTREG>
2-3-6-trimethylphenol

> <# Confs.>
1

> <LIC50>
0.277

> <Name>
2-3-6-trimethylphenol

$$$$
  3-chloro-4-fluorophenol
XX    ILIB04271811163D

 13 13  0  0  1  0              1 V2000
   -2.1045   -2.6846   -0.0088 Cl  0  0  0  0  0
   -3.2822    0.0112   -0.0152 F   0  0  0  0  0
    2.2041    0.0080    0.0080 O   0  0  0  0  0
   -1.2549   -1.2129   -0.0080 C   0  0  0  0  0
   -1.9546    0.0080   -0.0080 C   0  0  0  0  0
    0.8450    0.0080    0.0080 C   0  0  0  0  0
    0.1450   -1.2114    0.0078 C   0  0  0  0  0
   -1.2549    1.2129    0.0078 C   0  0  0  0  0
    0.1450    1.2129    0.0080 C   0  0  0  0  0
    2.5410    0.9824    0.0104 H   0  0  0  0  0
    0.6873   -2.1504    0.0078 H   0  0  0  0  0
   -1.7969    2.1514    0.0078 H   0  0  0  0  0
    0.6868    2.1514    0.0144 H   0  0  0  0  0
  1  4  1  0  0  0
  2  5  1  0  0  0
  3  6  1  0  0  0
  3 10  1  0  0  0
  4  5  1  0  0  0
  4  7  2  0  0  0
  5  8  2  0  0  0
  6  7  1  0  0  0
  6  9  2  0  0  0
  7 11  1  0  0  0
  8  9  1  0  0  0
  8 12  1  0  0  0
  9 13  1  0  0  0
M  END
> <EXTREG>
3-chloro-4-fluorophenol

> <# Confs.>
1

> <LIC50>
1.131

> <Name>
3-chloro-4-fluorophenol

$$$$
  2-6-difluorophenol
XX    ILIB04271811163D

 13 13  0  0  1  0              1 V2000
    0.8093   -2.3613    0.0078 F   0  0  0  0  0
    0.8088    2.3623    0.0152 F   0  0  0  0  0
    2.2041    0.0080    0.0080 O   0  0  0  0  0
    0.1450   -1.2114    0.0078 C   0  0  0  0  0
    0.1450    1.2129    0.0080 C   0  0  0  0  0
    0.8450    0.0080    0.0080 C   0  0  0  0  0
   -1.2549   -1.2129   -0.0080 C   0  0  0  0  0
   -1.2549    1.2129    0.0078 C   0  0  0  0  0
   -1.9546    0.0080   -0.0080 C   0  0  0  0  0
    2.5410    0.9824    0.0104 H   0  0  0  0  0
   -1.7964   -2.1514   -0.0144 H   0  0  0  0  0
   -1.7969    2.1514    0.0078 H   0  0  0  0  0
   -3.0381    0.0112   -0.0144 H   0  0  0  0  0
  1  4  1  0  0  0
  2  5  1  0  0  0
  3  6  1  0  0  0
  3 10  1  0  0  0
  4  6  1  0  0  0
  4  7  2  0  0  0
  5  6  2  0  0  0
  5  8  1  0  0  0
  7  9  1  0  0  0
  7 11  1  0  0  0
  8  9  2  0  0  0
  8 12  1  0  0  0
  9 13  1  0  0  0
M  END
> <EXTREG>
2-6-difluorophenol

> <# Confs.>
1

> <LIC50>
0.471

> <Name>
2-6-difluorophenol

$$$$
  5-bromovanillin
XX    ILIB04271811163D

 21 21  0  0  1  0              1 V2000
   -2.1797    2.8145    0.0078 Br  0  0  0  0  0
   -3.3145    0.0112   -0.0080 O   0  0  0  0  0
    0.8252   -2.3887    0.0078 O   0  0  0  0  0
    2.2041    0.0080    0.0080 O   0  0  0  0  0
   -1.2549    1.2129    0.0078 C   0  0  0  0  0
   -1.9546    0.0080   -0.0080 C   0  0  0  0  0
    0.1450   -1.2114    0.0078 C   0  0  0  0  0
    0.8450    0.0080    0.0080 C   0  0  0  0  0
    0.1450    1.2129    0.0080 C   0  0  0  0  0
   -1.2549   -1.2129   -0.0080 C   0  0  0  0  0
   -3.7900    1.3452   -0.0144 C   0  0  0  0  0
    2.2266   -2.1279    0.0088 C   0  0  0  0  0
    2.5410    0.9824    0.0104 H   0  0  0  0  0
    0.6868    2.1514    0.0144 H   0  0  0  0  0
   -1.7964   -2.1514   -0.0144 H   0  0  0  0  0
   -3.4268    1.8589    0.8894 H   0  0  0  0  0
   -3.4248    1.8599   -0.8921 H   0  0  0  0  0
   -4.8809    1.3452   -0.0100 H   0  0  0  0  0
    2.4912   -1.5557   -0.8892 H   0  0  0  0  0
    2.4893   -1.5562    0.8921 H   0  0  0  0  0
    2.7725   -3.0723    0.0088 H   0  0  0  0  0
  1  5  1  0  0  0
  2  6  1  0  0  0
  2 11  1  0  0  0
  3  7  1  0  0  0
  3 12  1  0  0  0
  4  8  1  0  0  0
  4 13  1  0  0  0
  5  6  2  0  0  0
  5  9  1  0  0  0
  6 10  1  0  0  0
  7  8  1  0  0  0
  7 10  2  0  0  0
  8  9  2  0  0  0
  9 14  1  0  0  0
 10 15  1  0  0  0
 11 16  1  0  0  0
 11 17  1  0  0  0
 11 18  1  0  0  0
 12 19  1  0  0  0
 12 20  1  0  0  0
 12 21  1  0  0  0
M  END
> <EXTREG>
5-bromovanillin

> <# Confs.>
1

> <LIC50>
0.617

> <Name>
5-bromovanillin

$$$$
  2-hydroxy-4-5-dimethylacetophenone
XX    ILIB04271811163D

 21 21  0  0  1  0              1 V2000
    0.8252   -2.3887    0.0078 O   0  0  0  0  0
    2.2598   -2.1221    0.0088 O   0  0  0  0  0
    2.2041    0.0080    0.0080 O   0  0  0  0  0
    0.1450   -1.2114    0.0078 C   0  0  0  0  0
    0.8450    0.0080    0.0080 C   0  0  0  0  0
    0.1450    1.2129    0.0080 C   0  0  0  0  0
   -1.2549    1.2129    0.0078 C   0  0  0  0  0
   -1.2549   -1.2129   -0.0080 C   0  0  0  0  0
   -1.9546    0.0080   -0.0080 C   0  0  0  0  0
    0.8975    2.5156    0.0084 C   0  0  0  0  0
   -2.0068    2.5156    0.0078 C   0  0  0  0  0
    2.7705   -3.0254    0.0088 H   0  0  0  0  0
    2.5410    0.9824    0.0104 H   0  0  0  0  0
   -1.7964   -2.1514   -0.0144 H   0  0  0  0  0
   -3.0381    0.0112   -0.0144 H   0  0  0  0  0
    1.5239    2.5732    0.8931 H   0  0  0  0  0
    1.5254    2.5742   -0.8882 H   0  0  0  0  0
    0.1885    3.3447    0.0152 H   0  0  0  0  0
   -2.6338    2.5742   -0.8911 H   0  0  0  0  0
   -2.6348    2.5732    0.8904 H   0  0  0  0  0
   -1.2983    3.3447    0.0128 H   0  0  0  0  0
  1  2  1  0  0  0
  1  4  1  0  0  0
  2 12  1  0  0  0
  3  5  1  0  0  0
  3 13  1  0  0  0
  4  5  1  0  0  0
  4  8  2  0  0  0
  5  6  2  0  0  0
  6  7  1  0  0  0
  6 10  1  0  0  0
  7  9  2  0  0  0
  7 11  1  0  0  0
  8  9  1  0  0  0
  8 14  1  0  0  0
  9 15  1  0  0  0
 10 16  1  0  0  0
 10 17  1  0  0  0
 10 18  1  0  0  0
 11 19  1  0  0  0
 11 20  1  0  0  0
 11 21  1  0  0  0
M  END
> <EXTREG>
2-hydroxy-4-5-dimethylacetophenone

> <# Confs.>
1

> <LIC50>
0.707

> <Name>
2-hydroxy-4-5-dimethylacetophenone

$$$$
  2-fluorophenol
XX    ILIB04271811163D

 13 13  0  0  1  0              1 V2000
    0.8093   -2.3613    0.0078 F   0  0  0  0  0
    2.2041    0.0080    0.0080 O   0  0  0  0  0
    0.1450   -1.2114    0.0078 C   0  0  0  0  0
    0.8450    0.0080    0.0080 C   0  0  0  0  0
   -1.2549   -1.2129   -0.0080 C   0  0  0  0  0
    0.1450    1.2129    0.0080 C   0  0  0  0  0
   -1.9546    0.0080   -0.0080 C   0  0  0  0  0
   -1.2549    1.2129    0.0078 C   0  0  0  0  0
    2.5410    0.9824    0.0104 H   0  0  0  0  0
   -1.7964   -2.1514   -0.0144 H   0  0  0  0  0
    0.6868    2.1514    0.0144 H   0  0  0  0  0
   -3.0381    0.0112   -0.0144 H   0  0  0  0  0
   -1.7969    2.1514    0.0078 H   0  0  0  0  0
  1  3  1  0  0  0
  2  4  1  0  0  0
  2  9  1  0  0  0
  3  4  1  0  0  0
  3  5  2  0  0  0
  4  6  2  0  0  0
  5  7  1  0  0  0
  5 10  1  0  0  0
  6  8  1  0  0  0
  6 11  1  0  0  0
  7  8  2  0  0  0
  7 12  1  0  0  0
  8 13  1  0  0  0
M  END
> <EXTREG>
2-fluorophenol

> <# Confs.>
1

> <LIC50>
0.185

> <Name>
2-fluorophenol

$$$$
  2-4-difluorophenol
XX    ILIB04271811163D

 13 13  0  0  1  0              1 V2000
    0.8093   -2.3613    0.0078 F   0  0  0  0  0
   -3.2822    0.0112   -0.0152 F   0  0  0  0  0
    2.2041    0.0080    0.0080 O   0  0  0  0  0
    0.1450   -1.2114    0.0078 C   0  0  0  0  0
   -1.9546    0.0080   -0.0080 C   0  0  0  0  0
    0.8450    0.0080    0.0080 C   0  0  0  0  0
   -1.2549   -1.2129   -0.0080 C   0  0  0  0  0
   -1.2549    1.2129    0.0078 C   0  0  0  0  0
    0.1450    1.2129    0.0080 C   0  0  0  0  0
    2.5410    0.9824    0.0104 H   0  0  0  0  0
   -1.7964   -2.1514   -0.0144 H   0  0  0  0  0
   -1.7969    2.1514    0.0078 H   0  0  0  0  0
    0.6868    2.1514    0.0144 H   0  0  0  0  0
  1  4  1  0  0  0
  2  5  1  0  0  0
  3  6  1  0  0  0
  3 10  1  0  0  0
  4  6  1  0  0  0
  4  7  2  0  0  0
  5  7  1  0  0  0
  5  8  2  0  0  0
  6  9  2  0  0  0
  7 11  1  0  0  0
  8  9  1  0  0  0
  8 12  1  0  0  0
  9 13  1  0  0  0
M  END
> <EXTREG>
2-4-difluorophenol

> <# Confs.>
1

> <LIC50>
0.604

> <Name>
2-4-difluorophenol

$$$$
  4-fluorophenol
XX    ILIB04271811163D

 13 13  0  0  1  0              1 V2000
   -3.2822    0.0112   -0.0152 F   0  0  0  0  0
    2.2041    0.0080    0.0080 O   0  0  0  0  0
   -1.9546    0.0080   -0.0080 C   0  0  0  0  0
    0.8450    0.0080    0.0080 C   0  0  0  0  0
   -1.2549   -1.2129   -0.0080 C   0  0  0  0  0
   -1.2549    1.2129    0.0078 C   0  0  0  0  0
    0.1450   -1.2114    0.0078 C   0  0  0  0  0
    0.1450    1.2129    0.0080 C   0  0  0  0  0
    2.5410    0.9824    0.0104 H   0  0  0  0  0
   -1.7964   -2.1514   -0.0144 H   0  0  0  0  0
   -1.7969    2.1514    0.0078 H   0  0  0  0  0
    0.6873   -2.1504    0.0078 H   0  0  0  0  0
    0.6868    2.1514    0.0144 H   0  0  0  0  0
  1  3  1  0  0  0
  2  4  1  0  0  0
  2  9  1  0  0  0
  3  5  1  0  0  0
  3  6  2  0  0  0
  4  7  1  0  0  0
  4  8  2  0  0  0
  5  7  2  0  0  0
  5 10  1  0  0  0
  6  8  1  0  0  0
  6 11  1  0  0  0
  7 12  1  0  0  0
  8 13  1  0  0  0
M  END
> <EXTREG>
4-fluorophenol

> <# Confs.>
1

> <LIC50>
0.017

> <Name>
4-fluorophenol

$$$$
  3-fluorophenol
XX    ILIB04271811163D

 13 13  0  0  1  0              1 V2000
   -1.9185   -2.3623   -0.0152 F   0  0  0  0  0
    2.2041    0.0080    0.0080 O   0  0  0  0  0
   -1.2549   -1.2129   -0.0080 C   0  0  0  0  0
    0.8450    0.0080    0.0080 C   0  0  0  0  0
    0.1450   -1.2114    0.0078 C   0  0  0  0  0
   -1.9546    0.0080   -0.0080 C   0  0  0  0  0
    0.1450    1.2129    0.0080 C   0  0  0  0  0
   -1.2549    1.2129    0.0078 C   0  0  0  0  0
    2.5410    0.9824    0.0104 H   0  0  0  0  0
    0.6873   -2.1504    0.0078 H   0  0  0  0  0
   -3.0381    0.0112   -0.0144 H   0  0  0  0  0
    0.6868    2.1514    0.0144 H   0  0  0  0  0
   -1.7969    2.1514    0.0078 H   0  0  0  0  0
  1  3  1  0  0  0
  2  4  1  0  0  0
  2  9  1  0  0  0
  3  5  2  0  0  0
  3  6  1  0  0  0
  4  5  1  0  0  0
  4  7  2  0  0  0
  5 10  1  0  0  0
  6  8  2  0  0  0
  6 11  1  0  0  0
  7  8  1  0  0  0
  7 12  1  0  0  0
  8 13  1  0  0  0
M  END
> <EXTREG>
3-fluorophenol

> <# Confs.>
1

> <LIC50>
0.381

> <Name>
3-fluorophenol

$$$$
  2-6-dichloro-4-fluorophenol
XX    ILIB04271811163D

 13 13  0  0  1  0              1 V2000
    0.9954   -2.6836    0.0078 Cl  0  0  0  0  0
    0.9949    2.6846    0.0088 Cl  0  0  0  0  0
   -3.2822    0.0112   -0.0152 F   0  0  0  0  0
    2.2041    0.0080    0.0080 O   0  0  0  0  0
    0.1450   -1.2114    0.0078 C   0  0  0  0  0
    0.1450    1.2129    0.0080 C   0  0  0  0  0
   -1.9546    0.0080   -0.0080 C   0  0  0  0  0
    0.8450    0.0080    0.0080 C   0  0  0  0  0
   -1.2549   -1.2129   -0.0080 C   0  0  0  0  0
   -1.2549    1.2129    0.0078 C   0  0  0  0  0
    2.5410    0.9824    0.0104 H   0  0  0  0  0
   -1.7964   -2.1514   -0.0144 H   0  0  0  0  0
   -1.7969    2.1514    0.0078 H   0  0  0  0  0
  1  5  1  0  0  0
  2  6  1  0  0  0
  3  7  1  0  0  0
  4  8  1  0  0  0
  4 11  1  0  0  0
  5  8  1  0  0  0
  5  9  2  0  0  0
  6  8  2  0  0  0
  6 10  1  0  0  0
  7  9  1  0  0  0
  7 10  2  0  0  0
  9 12  1  0  0  0
 10 13  1  0  0  0
M  END
> <EXTREG>
2-6-dichloro-4-fluorophenol

> <# Confs.>
1

> <LIC50>
0.804

> <Name>
2-6-dichloro-4-fluorophenol

$$$$
  a-a-a-trifluoro-4-cresol
XX    ILIB04271811163D

 16 16  0  0  1  0              1 V2000
   -3.9189   -0.5835   -1.0908 F   0  0  0  0  0
   -3.9199   -0.5845    1.0854 F   0  0  0  0  0
   -3.9189    1.3008   -0.0152 F   0  0  0  0  0
    2.1895    0.0439    0.0080 O   0  0  0  0  0
    0.8296    0.0439    0.0080 C   0  0  0  0  0
   -1.9702    0.0439   -0.0080 C   0  0  0  0  0
    0.1297   -1.1685    0.0078 C   0  0  0  0  0
    0.1297    1.2559    0.0080 C   0  0  0  0  0
   -1.2700   -1.1694   -0.0080 C   0  0  0  0  0
   -1.2700    1.2559    0.0078 C   0  0  0  0  0
   -3.4746    0.0441   -0.0084 C   0  0  0  0  0
    2.5254    1.0259    0.0104 H   0  0  0  0  0
    0.6719   -2.1064    0.0078 H   0  0  0  0  0
    0.6716    2.1943    0.0144 H   0  0  0  0  0
   -1.8120   -2.1084   -0.0144 H   0  0  0  0  0
   -1.8120    2.1943    0.0078 H   0  0  0  0  0
  1 11  1  0  0  0
  2 11  1  0  0  0
  3 11  1  0  0  0
  4  5  1  0  0  0
  4 12  1  0  0  0
  5  7  1  0  0  0
  5  8  2  0  0  0
  6  9  1  0  0  0
  6 10  2  0  0  0
  6 11  1  0  0  0
  7  9  2  0  0  0
  7 13  1  0  0  0
  8 10  1  0  0  0
  8 14  1  0  0  0
  9 15  1  0  0  0
 10 16  1  0  0  0
M  END
> <EXTREG>
a-a-a-trifluoro-4-cresol

> <# Confs.>
1

> <LIC50>
0.618

> <Name>
a-a-a-trifluoro-4-cresol

$$$$
  2-3-4-5-tetrschlorophenol
XX    ILIB04271811163D

 13 13  0  0  1  0              1 V2000
   -2.1045   -2.6846   -0.0088 Cl  0  0  0  0  0
   -3.6543    0.0128   -0.0088 Cl  0  0  0  0  0
    0.9954   -2.6836    0.0078 Cl  0  0  0  0  0
   -2.1045    2.6846    0.0078 Cl  0  0  0  0  0
    2.2041    0.0080    0.0080 O   0  0  0  0  0
   -1.2549   -1.2129   -0.0080 C   0  0  0  0  0
   -1.9546    0.0080   -0.0080 C   0  0  0  0  0
    0.1450   -1.2114    0.0078 C   0  0  0  0  0
   -1.2549    1.2129    0.0078 C   0  0  0  0  0
    0.8450    0.0080    0.0080 C   0  0  0  0  0
    0.1450    1.2129    0.0080 C   0  0  0  0  0
    2.5410    0.9824    0.0104 H   0  0  0  0  0
    0.6868    2.1514    0.0144 H   0  0  0  0  0
  1  6  1  0  0  0
  2  7  1  0  0  0
  3  8  1  0  0  0
  4  9  1  0  0  0
  5 10  1  0  0  0
  5 12  1  0  0  0
  6  7  1  0  0  0
  6  8  2  0  0  0
  7  9  2  0  0  0
  8 10  1  0  0  0
  9 11  1  0  0  0
 10 11  2  0  0  0
 11 13  1  0  0  0
M  END
> <EXTREG>
2-3-4-5-tetrschlorophenol

> <# Confs.>
1

> <LIC50>
2.712

> <Name>
2-3-4-5-tetrschlorophenol

$$$$
  3-5-dimethoxyphenol
XX    ILIB04271811163D

 21 21  0  0  1  0              1 V2000
   -1.9346   -2.3906   -0.0080 O   0  0  0  0  0
   -1.9346    2.3906    0.0078 O   0  0  0  0  0
    2.2041    0.0080    0.0080 O   0  0  0  0  0
   -1.2549   -1.2129   -0.0080 C   0  0  0  0  0
   -1.2549    1.2129    0.0078 C   0  0  0  0  0
    0.8450    0.0080    0.0080 C   0  0  0  0  0
   -1.9546    0.0080   -0.0080 C   0  0  0  0  0
    0.1450   -1.2114    0.0078 C   0  0  0  0  0
    0.1450    1.2129    0.0080 C   0  0  0  0  0
   -3.3359   -2.1299   -0.0116 C   0  0  0  0  0
   -1.0078    3.4736    0.0088 C   0  0  0  0  0
    2.5410    0.9824    0.0104 H   0  0  0  0  0
   -3.0381    0.0112   -0.0144 H   0  0  0  0  0
    0.6873   -2.1504    0.0078 H   0  0  0  0  0
    0.6868    2.1514    0.0144 H   0  0  0  0  0
   -3.6006   -1.5586    0.8879 H   0  0  0  0  0
   -3.5996   -1.5576   -0.8936 H   0  0  0  0  0
   -3.8818   -3.0752   -0.0144 H   0  0  0  0  0
   -0.3816    3.4160    0.8921 H   0  0  0  0  0
   -0.3805    3.4170   -0.8892 H   0  0  0  0  0
   -1.5537    4.4180    0.0088 H   0  0  0  0  0
  1  4  1  0  0  0
  1 10  1  0  0  0
  2  5  1  0  0  0
  2 11  1  0  0  0
  3  6  1  0  0  0
  3 12  1  0  0  0
  4  7  1  0  0  0
  4  8  2  0  0  0
  5  7  2  0  0  0
  5  9  1  0  0  0
  6  8  1  0  0  0
  6  9  2  0  0  0
  7 13  1  0  0  0
  8 14  1  0  0  0
  9 15  1  0  0  0
 10 16  1  0  0  0
 10 17  1  0  0  0
 10 18  1  0  0  0
 11 19  1  0  0  0
 11 20  1  0  0  0
 11 21  1  0  0  0
M  END
> <EXTREG>
3-5-dimethoxyphenol

> <# Confs.>
1

> <LIC50>
-0.092

> <Name>
3-5-dimethoxyphenol

$$$$
  4-hydroxyphenethyl_alcohol
XX    ILIB04271811163D

 20 20  0  0  1  0              1 V2000
    2.2041    0.0080    0.0080 O   0  0  0  0  0
   -5.3965    1.4502   -0.0116 O   0  0  0  0  0
    0.8450    0.0080    0.0080 C   0  0  0  0  0
   -1.9546    0.0080   -0.0080 C   0  0  0  0  0
    0.1450   -1.2114    0.0078 C   0  0  0  0  0
    0.1450    1.2129    0.0080 C   0  0  0  0  0
   -1.2549   -1.2129   -0.0080 C   0  0  0  0  0
   -1.2549    1.2129    0.0078 C   0  0  0  0  0
   -3.9717    1.4497   -0.0144 C   0  0  0  0  0
   -3.4600    0.0128   -0.0084 C   0  0  0  0  0
    2.5410    0.9824    0.0104 H   0  0  0  0  0
   -5.7324    2.4316   -0.0108 H   0  0  0  0  0
    0.6873   -2.1504    0.0078 H   0  0  0  0  0
    0.6868    2.1514    0.0144 H   0  0  0  0  0
   -1.7964   -2.1514   -0.0144 H   0  0  0  0  0
   -1.7969    2.1514    0.0078 H   0  0  0  0  0
   -3.6084    1.9634    0.8892 H   0  0  0  0  0
   -3.6074    1.9644   -0.8921 H   0  0  0  0  0
   -3.8223   -0.5129   -0.8931 H   0  0  0  0  0
   -3.8242   -0.5137    0.8882 H   0  0  0  0  0
  1  3  1  0  0  0
  1 11  1  0  0  0
  2  9  1  0  0  0
  2 12  1  0  0  0
  3  5  1  0  0  0
  3  6  2  0  0  0
  4  7  1  0  0  0
  4  8  2  0  0  0
  4 10  1  0  0  0
  5  7  2  0  0  0
  5 13  1  0  0  0
  6  8  1  0  0  0
  6 14  1  0  0  0
  7 15  1  0  0  0
  8 16  1  0  0  0
  9 10  1  0  0  0
  9 17  1  0  0  0
  9 18  1  0  0  0
 10 19  1  0  0  0
 10 20  1  0  0  0
M  END
> <EXTREG>
4-hydroxyphenethyl_alcohol

> <# Confs.>
1

> <LIC50>
-0.826

> <Name>
4-hydroxyphenethyl_alcohol

$$$$
  2-3-dimethylphenol
XX    ILIB04271811163D

 19 19  0  0  1  0              1 V2000
    2.2041    0.0080    0.0080 O   0  0  0  0  0
    0.8450    0.0080    0.0080 C   0  0  0  0  0
    0.1450   -1.2114    0.0078 C   0  0  0  0  0
   -1.2549   -1.2129   -0.0080 C   0  0  0  0  0
    0.1450    1.2129    0.0080 C   0  0  0  0  0
   -1.9546    0.0080   -0.0080 C   0  0  0  0  0
   -1.2549    1.2129    0.0078 C   0  0  0  0  0
    0.8979   -2.5146    0.0078 C   0  0  0  0  0
   -2.0068   -2.5156   -0.0084 C   0  0  0  0  0
    2.5410    0.9824    0.0104 H   0  0  0  0  0
    0.6868    2.1514    0.0144 H   0  0  0  0  0
   -3.0381    0.0112   -0.0144 H   0  0  0  0  0
   -1.7969    2.1514    0.0078 H   0  0  0  0  0
    0.6338   -3.0869    0.8904 H   0  0  0  0  0
    0.6350   -3.0859   -0.8911 H   0  0  0  0  0
    1.9702   -2.3145    0.0128 H   0  0  0  0  0
   -1.7427   -3.0879   -0.8928 H   0  0  0  0  0
   -1.7441   -3.0879    0.8887 H   0  0  0  0  0
   -3.0791   -2.3164   -0.0112 H   0  0  0  0  0
  1  2  1  0  0  0
  1 10  1  0  0  0
  2  3  1  0  0  0
  2  5  2  0  0  0
  3  4  2  0  0  0
  3  8  1  0  0  0
  4  6  1  0  0  0
  4  9  1  0  0  0
  5  7  1  0  0  0
  5 11  1  0  0  0
  6  7  2  0  0  0
  6 12  1  0  0  0
  7 13  1  0  0  0
  8 14  1  0  0  0
  8 15  1  0  0  0
  8 16  1  0  0  0
  9 17  1  0  0  0
  9 18  1  0  0  0
  9 19  1  0  0  0
M  END
> <EXTREG>
2-3-dimethylphenol

> <# Confs.>
1

> <LIC50>
0.122

> <Name>
2-3-dimethylphenol

$$$$
  3-4-5-trimethylphenol
XX    ILIB04271811163D

 22 22  0  0  1  0              1 V2000
    2.2041    0.0080    0.0080 O   0  0  0  0  0
    0.8450    0.0080    0.0080 C   0  0  0  0  0
    0.1450   -1.2114    0.0078 C   0  0  0  0  0
   -1.2549   -1.2129   -0.0080 C   0  0  0  0  0
   -1.9546    0.0080   -0.0080 C   0  0  0  0  0
    0.1450    1.2129    0.0080 C   0  0  0  0  0
   -1.2549    1.2129    0.0078 C   0  0  0  0  0
    0.8979   -2.5146    0.0078 C   0  0  0  0  0
   -2.0068   -2.5156   -0.0084 C   0  0  0  0  0
   -3.4600    0.0128   -0.0084 C   0  0  0  0  0
    2.5410    0.9824    0.0104 H   0  0  0  0  0
    0.6868    2.1514    0.0144 H   0  0  0  0  0
   -1.7969    2.1514    0.0078 H   0  0  0  0  0
    0.6338   -3.0869    0.8904 H   0  0  0  0  0
    0.6350   -3.0859   -0.8911 H   0  0  0  0  0
    1.9702   -2.3145    0.0128 H   0  0  0  0  0
   -1.7427   -3.0879   -0.8928 H   0  0  0  0  0
   -1.7441   -3.0879    0.8887 H   0  0  0  0  0
   -3.0791   -2.3164   -0.0112 H   0  0  0  0  0
   -3.8223   -0.5129   -0.8931 H   0  0  0  0  0
   -3.8242   -0.5137    0.8882 H   0  0  0  0  0
   -3.8232    1.0293   -0.0152 H   0  0  0  0  0
  1  2  1  0  0  0
  1 11  1  0  0  0
  2  3  1  0  0  0
  2  6  2  0  0  0
  3  4  2  0  0  0
  3  8  1  0  0  0
  4  5  1  0  0  0
  4  9  1  0  0  0
  5  7  2  0  0  0
  5 10  1  0  0  0
  6  7  1  0  0  0
  6 12  1  0  0  0
  7 13  1  0  0  0
  8 14  1  0  0  0
  8 15  1  0  0  0
  8 16  1  0  0  0
  9 17  1  0  0  0
  9 18  1  0  0  0
  9 19  1  0  0  0
 10 20  1  0  0  0
 10 21  1  0  0  0
 10 22  1  0  0  0
M  END
> <EXTREG>
3-4-5-trimethylphenol

> <# Confs.>
1

> <LIC50>
0.932

> <Name>
3-4-5-trimethylphenol

$$$$
  2-4-6-trimethylphenol
XX    ILIB04271811163D

 22 22  0  0  1  0              1 V2000
    2.2041    0.0080    0.0080 O   0  0  0  0  0
    0.8450    0.0080    0.0080 C   0  0  0  0  0
    0.1450   -1.2114    0.0078 C   0  0  0  0  0
    0.1450    1.2129    0.0080 C   0  0  0  0  0
   -1.9546    0.0080   -0.0080 C   0  0  0  0  0
   -1.2549   -1.2129   -0.0080 C   0  0  0  0  0
   -1.2549    1.2129    0.0078 C   0  0  0  0  0
    0.8979   -2.5146    0.0078 C   0  0  0  0  0
    0.8975    2.5156    0.0084 C   0  0  0  0  0
   -3.4600    0.0128   -0.0084 C   0  0  0  0  0
    2.5410    0.9824    0.0104 H   0  0  0  0  0
   -1.7964   -2.1514   -0.0144 H   0  0  0  0  0
   -1.7969    2.1514    0.0078 H   0  0  0  0  0
    0.6338   -3.0869    0.8904 H   0  0  0  0  0
    0.6350   -3.0859   -0.8911 H   0  0  0  0  0
    1.9702   -2.3145    0.0128 H   0  0  0  0  0
    1.5239    2.5732    0.8931 H   0  0  0  0  0
    1.5254    2.5742   -0.8882 H   0  0  0  0  0
    0.1885    3.3447    0.0152 H   0  0  0  0  0
   -3.8223   -0.5129   -0.8931 H   0  0  0  0  0
   -3.8242   -0.5137    0.8882 H   0  0  0  0  0
   -3.8232    1.0293   -0.0152 H   0  0  0  0  0
  1  2  1  0  0  0
  1 11  1  0  0  0
  2  3  1  0  0  0
  2  4  2  0  0  0
  3  6  2  0  0  0
  3  8  1  0  0  0
  4  7  1  0  0  0
  4  9  1  0  0  0
  5  6  1  0  0  0
  5  7  2  0  0  0
  5 10  1  0  0  0
  6 12  1  0  0  0
  7 13  1  0  0  0
  8 14  1  0  0  0
  8 15  1  0  0  0
  8 16  1  0  0  0
  9 17  1  0  0  0
  9 18  1  0  0  0
  9 19  1  0  0  0
 10 20  1  0  0  0
 10 21  1  0  0  0
 10 22  1  0  0  0
M  END
> <EXTREG>
2-4-6-trimethylphenol

> <# Confs.>
1

> <LIC50>
0.281

> <Name>
2-4-6-trimethylphenol

$$$$
  4-iodophenol
XX    ILIB04271811163D

 13 13  0  0  1  0              1 V2000
   -4.0039    0.0144   -0.0100 I   0  0  0  0  0
    2.2041    0.0080    0.0080 O   0  0  0  0  0
   -1.9546    0.0080   -0.0080 C   0  0  0  0  0
    0.8450    0.0080    0.0080 C   0  0  0  0  0
   -1.2549   -1.2129   -0.0080 C   0  0  0  0  0
   -1.2549    1.2129    0.0078 C   0  0  0  0  0
    0.1450   -1.2114    0.0078 C   0  0  0  0  0
    0.1450    1.2129    0.0080 C   0  0  0  0  0
    2.5410    0.9824    0.0104 H   0  0  0  0  0
   -1.7964   -2.1514   -0.0144 H   0  0  0  0  0
   -1.7969    2.1514    0.0078 H   0  0  0  0  0
    0.6873   -2.1504    0.0078 H   0  0  0  0  0
    0.6868    2.1514    0.0144 H   0  0  0  0  0
  1  3  1  0  0  0
  2  4  1  0  0  0
  2  9  1  0  0  0
  3  5  1  0  0  0
  3  6  2  0  0  0
  4  7  1  0  0  0
  4  8  2  0  0  0
  5  7  2  0  0  0
  5 10  1  0  0  0
  6  8  1  0  0  0
  6 11  1  0  0  0
  7 12  1  0  0  0
  8 13  1  0  0  0
M  END
> <EXTREG>
4-iodophenol

> <# Confs.>
1

> <LIC50>
0.854

> <Name>
4-iodophenol

$$$$
  2-3-dichlorophenol
XX    ILIB04271811163D

 13 13  0  0  1  0              1 V2000
    0.9954   -2.6836    0.0078 Cl  0  0  0  0  0
   -2.1045   -2.6846   -0.0088 Cl  0  0  0  0  0
    2.2041    0.0080    0.0080 O   0  0  0  0  0
    0.1450   -1.2114    0.0078 C   0  0  0  0  0
   -1.2549   -1.2129   -0.0080 C   0  0  0  0  0
    0.8450    0.0080    0.0080 C   0  0  0  0  0
   -1.9546    0.0080   -0.0080 C   0  0  0  0  0
    0.1450    1.2129    0.0080 C   0  0  0  0  0
   -1.2549    1.2129    0.0078 C   0  0  0  0  0
    2.5410    0.9824    0.0104 H   0  0  0  0  0
   -3.0381    0.0112   -0.0144 H   0  0  0  0  0
    0.6868    2.1514    0.0144 H   0  0  0  0  0
   -1.7969    2.1514    0.0078 H   0  0  0  0  0
  1  4  1  0  0  0
  2  5  1  0  0  0
  3  6  1  0  0  0
  3 10  1  0  0  0
  4  5  2  0  0  0
  4  6  1  0  0  0
  5  7  1  0  0  0
  6  8  2  0  0  0
  7  9  2  0  0  0
  7 11  1  0  0  0
  8  9  1  0  0  0
  8 12  1  0  0  0
  9 13  1  0  0  0
M  END
> <EXTREG>
2-3-dichlorophenol

> <# Confs.>
1

> <LIC50>
1.276

> <Name>
2-3-dichlorophenol

$$$$
  3-4-5-6-tetrabromo-2-methylphenol
XX    ILIB04271811163D

 16 16  0  0  1  0              1 V2000
   -2.1797    2.8145    0.0078 Br  0  0  0  0  0
   -3.8047    0.0128   -0.0092 Br  0  0  0  0  0
    1.0698    2.8145    0.0092 Br  0  0  0  0  0
   -2.1797   -2.8145   -0.0092 Br  0  0  0  0  0
    2.2041    0.0080    0.0080 O   0  0  0  0  0
   -1.2549    1.2129    0.0078 C   0  0  0  0  0
   -1.9546    0.0080   -0.0080 C   0  0  0  0  0
    0.1450    1.2129    0.0080 C   0  0  0  0  0
   -1.2549   -1.2129   -0.0080 C   0  0  0  0  0
    0.8450    0.0080    0.0080 C   0  0  0  0  0
    0.1450   -1.2114    0.0078 C   0  0  0  0  0
    0.8979   -2.5146    0.0078 C   0  0  0  0  0
    2.5410    0.9824    0.0104 H   0  0  0  0  0
    0.6338   -3.0869    0.8904 H   0  0  0  0  0
    0.6350   -3.0859   -0.8911 H   0  0  0  0  0
    1.9702   -2.3145    0.0128 H   0  0  0  0  0
  1  6  1  0  0  0
  2  7  1  0  0  0
  3  8  1  0  0  0
  4  9  1  0  0  0
  5 10  1  0  0  0
  5 13  1  0  0  0
  6  7  2  0  0  0
  6  8  1  0  0  0
  7  9  1  0  0  0
  8 10  2  0  0  0
  9 11  2  0  0  0
 10 11  1  0  0  0
 11 12  1  0  0  0
 12 14  1  0  0  0
 12 15  1  0  0  0
 12 16  1  0  0  0
M  END
> <EXTREG>
3-4-5-6-tetrabromo-2-methylphenol

> <# Confs.>
1

> <LIC50>
2.574

> <Name>
3-4-5-6-tetrabromo-2-methylphenol

$$$$
  2-5-dichlorophenol
XX    ILIB04271811163D

 13 13  0  0  1  0              1 V2000
    0.9954   -2.6836    0.0078 Cl  0  0  0  0  0
   -2.1045    2.6846    0.0078 Cl  0  0  0  0  0
    2.2041    0.0080    0.0080 O   0  0  0  0  0
    0.1450   -1.2114    0.0078 C   0  0  0  0  0
   -1.2549    1.2129    0.0078 C   0  0  0  0  0
    0.8450    0.0080    0.0080 C   0  0  0  0  0
    0.1450    1.2129    0.0080 C   0  0  0  0  0
   -1.2549   -1.2129   -0.0080 C   0  0  0  0  0
   -1.9546    0.0080   -0.0080 C   0  0  0  0  0
    2.5410    0.9824    0.0104 H   0  0  0  0  0
    0.6868    2.1514    0.0144 H   0  0  0  0  0
   -1.7964   -2.1514   -0.0144 H   0  0  0  0  0
   -3.0381    0.0112   -0.0144 H   0  0  0  0  0
  1  4  1  0  0  0
  2  5  1  0  0  0
  3  6  1  0  0  0
  3 10  1  0  0  0
  4  6  1  0  0  0
  4  8  2  0  0  0
  5  7  1  0  0  0
  5  9  2  0  0  0
  6  7  2  0  0  0
  7 11  1  0  0  0
  8  9  1  0  0  0
  8 12  1  0  0  0
  9 13  1  0  0  0
M  END
> <EXTREG>
2-5-dichlorophenol

> <# Confs.>
1

> <LIC50>
1.125

> <Name>
2-5-dichlorophenol

$$$$
  3-tert-butylphenol
XX    ILIB04271811163D

 25 25  0  0  1  0              1 V2000
    2.2041    0.0080    0.0080 O   0  0  0  0  0
    0.8450    0.0080    0.0080 C   0  0  0  0  0
   -1.2549   -1.2129   -0.0080 C   0  0  0  0  0
    0.1450   -1.2114    0.0078 C   0  0  0  0  0
    0.1450    1.2129    0.0080 C   0  0  0  0  0
   -1.9546    0.0080   -0.0080 C   0  0  0  0  0
   -1.2549    1.2129    0.0078 C   0  0  0  0  0
   -2.0068   -2.5156   -0.0084 C   0  0  0  0  0
   -1.6328   -3.3252   -1.2632 C   0  0  0  0  0
   -1.6348   -3.3262    1.2588 C   0  0  0  0  0
   -3.5254   -2.2344   -0.0120 C   0  0  0  0  0
    2.5410    0.9824    0.0104 H   0  0  0  0  0
    0.6873   -2.1504    0.0078 H   0  0  0  0  0
    0.6868    2.1514    0.0144 H   0  0  0  0  0
   -3.0381    0.0112   -0.0144 H   0  0  0  0  0
   -1.7969    2.1514    0.0078 H   0  0  0  0  0
   -1.8960   -2.7529   -2.1533 H   0  0  0  0  0
   -0.5603   -3.5244   -1.2622 H   0  0  0  0  0
   -2.1777   -4.2695   -1.2637 H   0  0  0  0  0
   -0.5620   -3.5254    1.2593 H   0  0  0  0  0
   -1.8989   -2.7549    2.1494 H   0  0  0  0  0
   -2.1797   -4.2715    1.2578 H   0  0  0  0  0
   -3.7900   -1.6626    0.8877 H   0  0  0  0  0
   -3.7881   -1.6616   -0.8938 H   0  0  0  0  0
   -4.0703   -3.1787   -0.0152 H   0  0  0  0  0
  1  2  1  0  0  0
  1 12  1  0  0  0
  2  4  1  0  0  0
  2  5  2  0  0  0
  3  4  2  0  0  0
  3  6  1  0  0  0
  3  8  1  0  0  0
  4 13  1  0  0  0
  5  7  1  0  0  0
  5 14  1  0  0  0
  6  7  2  0  0  0
  6 15  1  0  0  0
  7 16  1  0  0  0
  8  9  1  0  0  0
  8 10  1  0  0  0
  8 11  1  0  0  0
  9 17  1  0  0  0
  9 18  1  0  0  0
  9 19  1  0  0  0
 10 20  1  0  0  0
 10 21  1  0  0  0
 10 22  1  0  0  0
 11 23  1  0  0  0
 11 24  1  0  0  0
 11 25  1  0  0  0
M  END
> <EXTREG>
3-tert-butylphenol

> <# Confs.>
1

> <LIC50>
0.73

> <Name>
3-tert-butylphenol

$$$$
  4-chloro-3-methylphenol
XX    ILIB04271811163D

 16 16  0  0  1  0              1 V2000
   -3.6543    0.0128   -0.0088 Cl  0  0  0  0  0
    2.2041    0.0080    0.0080 O   0  0  0  0  0
   -1.9546    0.0080   -0.0080 C   0  0  0  0  0
    0.8450    0.0080    0.0080 C   0  0  0  0  0
   -1.2549   -1.2129   -0.0080 C   0  0  0  0  0
   -1.2549    1.2129    0.0078 C   0  0  0  0  0
    0.1450   -1.2114    0.0078 C   0  0  0  0  0
    0.1450    1.2129    0.0080 C   0  0  0  0  0
   -2.0068   -2.5156   -0.0084 C   0  0  0  0  0
    2.5410    0.9824    0.0104 H   0  0  0  0  0
   -1.7969    2.1514    0.0078 H   0  0  0  0  0
    0.6873   -2.1504    0.0078 H   0  0  0  0  0
    0.6868    2.1514    0.0144 H   0  0  0  0  0
   -1.7427   -3.0879   -0.8928 H   0  0  0  0  0
   -1.7441   -3.0879    0.8887 H   0  0  0  0  0
   -3.0791   -2.3164   -0.0112 H   0  0  0  0  0
  1  3  1  0  0  0
  2  4  1  0  0  0
  2 10  1  0  0  0
  3  5  1  0  0  0
  3  6  2  0  0  0
  4  7  1  0  0  0
  4  8  2  0  0  0
  5  7  2  0  0  0
  5  9  1  0  0  0
  6  8  1  0  0  0
  6 11  1  0  0  0
  7 12  1  0  0  0
  8 13  1  0  0  0
  9 14  1  0  0  0
  9 15  1  0  0  0
  9 16  1  0  0  0
M  END
> <EXTREG>
4-chloro-3-methylphenol

> <# Confs.>
1

> <LIC50>
0.796

> <Name>
4-chloro-3-methylphenol

$$$$
  3-bromophenol
XX    ILIB04271811163D

 13 13  0  0  1  0              1 V2000
   -2.1797   -2.8145   -0.0092 Br  0  0  0  0  0
    2.2041    0.0080    0.0080 O   0  0  0  0  0
   -1.2549   -1.2129   -0.0080 C   0  0  0  0  0
    0.8450    0.0080    0.0080 C   0  0  0  0  0
    0.1450   -1.2114    0.0078 C   0  0  0  0  0
   -1.9546    0.0080   -0.0080 C   0  0  0  0  0
    0.1450    1.2129    0.0080 C   0  0  0  0  0
   -1.2549    1.2129    0.0078 C   0  0  0  0  0
    2.5410    0.9824    0.0104 H   0  0  0  0  0
    0.6873   -2.1504    0.0078 H   0  0  0  0  0
   -3.0381    0.0112   -0.0144 H   0  0  0  0  0
    0.6868    2.1514    0.0144 H   0  0  0  0  0
   -1.7969    2.1514    0.0078 H   0  0  0  0  0
  1  3  1  0  0  0
  2  4  1  0  0  0
  2  9  1  0  0  0
  3  5  2  0  0  0
  3  6  1  0  0  0
  4  5  1  0  0  0
  4  7  2  0  0  0
  5 10  1  0  0  0
  6  8  2  0  0  0
  6 11  1  0  0  0
  7  8  1  0  0  0
  7 12  1  0  0  0
  8 13  1  0  0  0
M  END
> <EXTREG>
3-bromophenol

> <# Confs.>
1

> <LIC50>
1.145

> <Name>
3-bromophenol

$$$$
  3-5-dichlorophenol
XX    ILIB04271811163D

 13 13  0  0  1  0              1 V2000
   -2.1045   -2.6846   -0.0088 Cl  0  0  0  0  0
   -2.1045    2.6846    0.0078 Cl  0  0  0  0  0
    2.2041    0.0080    0.0080 O   0  0  0  0  0
   -1.2549   -1.2129   -0.0080 C   0  0  0  0  0
   -1.2549    1.2129    0.0078 C   0  0  0  0  0
    0.8450    0.0080    0.0080 C   0  0  0  0  0
   -1.9546    0.0080   -0.0080 C   0  0  0  0  0
    0.1450   -1.2114    0.0078 C   0  0  0  0  0
    0.1450    1.2129    0.0080 C   0  0  0  0  0
    2.5410    0.9824    0.0104 H   0  0  0  0  0
   -3.0381    0.0112   -0.0144 H   0  0  0  0  0
    0.6873   -2.1504    0.0078 H   0  0  0  0  0
    0.6868    2.1514    0.0144 H   0  0  0  0  0
  1  4  1  0  0  0
  2  5  1  0  0  0
  3  6  1  0  0  0
  3 10  1  0  0  0
  4  7  1  0  0  0
  4  8  2  0  0  0
  5  7  2  0  0  0
  5  9  1  0  0  0
  6  8  1  0  0  0
  6  9  2  0  0  0
  7 11  1  0  0  0
  8 12  1  0  0  0
  9 13  1  0  0  0
M  END
> <EXTREG>
3-5-dichlorophenol

> <# Confs.>
1

> <LIC50>
1.569

> <Name>
3-5-dichlorophenol

$$$$
  pentabromophenol
XX    ILIB04271811163D

 13 13  0  0  1  0              1 V2000
   -3.8047    0.0128   -0.0092 Br  0  0  0  0  0
   -2.1797    2.8145    0.0078 Br  0  0  0  0  0
   -2.1797   -2.8145   -0.0092 Br  0  0  0  0  0
    1.0698    2.8145    0.0092 Br  0  0  0  0  0
    1.0703   -2.8135    0.0078 Br  0  0  0  0  0
    2.2041    0.0080    0.0080 O   0  0  0  0  0
   -1.9546    0.0080   -0.0080 C   0  0  0  0  0
   -1.2549    1.2129    0.0078 C   0  0  0  0  0
   -1.2549   -1.2129   -0.0080 C   0  0  0  0  0
    0.1450    1.2129    0.0080 C   0  0  0  0  0
    0.1450   -1.2114    0.0078 C   0  0  0  0  0
    0.8450    0.0080    0.0080 C   0  0  0  0  0
    2.5410    0.9824    0.0104 H   0  0  0  0  0
  1  7  1  0  0  0
  2  8  1  0  0  0
  3  9  1  0  0  0
  4 10  1  0  0  0
  5 11  1  0  0  0
  6 12  1  0  0  0
  6 13  1  0  0  0
  7  8  2  0  0  0
  7  9  1  0  0  0
  8 10  1  0  0  0
  9 11  2  0  0  0
 10 12  2  0  0  0
 11 12  1  0  0  0
M  END
> <EXTREG>
pentabromophenol

> <# Confs.>
1

> <LIC50>
2.664

> <Name>
pentabromophenol

$$$$
  2-cyanophenol
XX    ILIB04271811163D

 14 14  0  0  1  0              1 V2000
    2.2041    0.0080    0.0080 O   0  0  0  0  0
    1.4683   -3.5020    0.0078 N   0  0  0  0  0
    0.8450    0.0080    0.0080 C   0  0  0  0  0
    0.1450   -1.2114    0.0078 C   0  0  0  0  0
    0.1450    1.2129    0.0080 C   0  0  0  0  0
   -1.2549   -1.2129   -0.0080 C   0  0  0  0  0
   -1.2549    1.2129    0.0078 C   0  0  0  0  0
   -1.9546    0.0080   -0.0080 C   0  0  0  0  0
    0.8979   -2.5146    0.0078 C   0  0  0  0  0
    2.5410    0.9824    0.0104 H   0  0  0  0  0
    0.6868    2.1514    0.0144 H   0  0  0  0  0
   -1.7964   -2.1514   -0.0144 H   0  0  0  0  0
   -1.7969    2.1514    0.0078 H   0  0  0  0  0
   -3.0381    0.0112   -0.0144 H   0  0  0  0  0
  1  3  1  0  0  0
  1 10  1  0  0  0
  2  9  3  0  0  0
  3  4  1  0  0  0
  3  5  2  0  0  0
  4  6  2  0  0  0
  4  9  1  0  0  0
  5  7  1  0  0  0
  5 11  1  0  0  0
  6  8  1  0  0  0
  6 12  1  0  0  0
  7  8  2  0  0  0
  7 13  1  0  0  0
  8 14  1  0  0  0
M  END
> <EXTREG>
2-cyanophenol

> <# Confs.>
1

> <LIC50>
0.034

> <Name>
2-cyanophenol

$$$$
  2-4-dibromophenol
XX    ILIB04271811163D

 13 13  0  0  1  0              1 V2000
    1.0703   -2.8135    0.0078 Br  0  0  0  0  0
   -3.8047    0.0128   -0.0092 Br  0  0  0  0  0
    2.2041    0.0080    0.0080 O   0  0  0  0  0
    0.1450   -1.2114    0.0078 C   0  0  0  0  0
   -1.9546    0.0080   -0.0080 C   0  0  0  0  0
    0.8450    0.0080    0.0080 C   0  0  0  0  0
   -1.2549   -1.2129   -0.0080 C   0  0  0  0  0
   -1.2549    1.2129    0.0078 C   0  0  0  0  0
    0.1450    1.2129    0.0080 C   0  0  0  0  0
    2.5410    0.9824    0.0104 H   0  0  0  0  0
   -1.7964   -2.1514   -0.0144 H   0  0  0  0  0
   -1.7969    2.1514    0.0078 H   0  0  0  0  0
    0.6868    2.1514    0.0144 H   0  0  0  0  0
  1  4  1  0  0  0
  2  5  1  0  0  0
  3  6  1  0  0  0
  3 10  1  0  0  0
  4  6  1  0  0  0
  4  7  2  0  0  0
  5  7  1  0  0  0
  5  8  2  0  0  0
  6  9  2  0  0  0
  7 11  1  0  0  0
  8  9  1  0  0  0
  8 12  1  0  0  0
  9 13  1  0  0  0
M  END
> <EXTREG>
2-4-dibromophenol

> <# Confs.>
1

> <LIC50>
1.398

> <Name>
2-4-dibromophenol

$$$$
  2-chloro-5-methylphenol
XX    ILIB04271811163D

 16 16  0  0  1  0              1 V2000
    0.9954   -2.6836    0.0078 Cl  0  0  0  0  0
    2.2041    0.0080    0.0080 O   0  0  0  0  0
    0.1450   -1.2114    0.0078 C   0  0  0  0  0
    0.8450    0.0080    0.0080 C   0  0  0  0  0
   -1.2549    1.2129    0.0078 C   0  0  0  0  0
   -1.2549   -1.2129   -0.0080 C   0  0  0  0  0
    0.1450    1.2129    0.0080 C   0  0  0  0  0
   -1.9546    0.0080   -0.0080 C   0  0  0  0  0
   -2.0068    2.5156    0.0078 C   0  0  0  0  0
    2.5410    0.9824    0.0104 H   0  0  0  0  0
   -1.7964   -2.1514   -0.0144 H   0  0  0  0  0
    0.6868    2.1514    0.0144 H   0  0  0  0  0
   -3.0381    0.0112   -0.0144 H   0  0  0  0  0
   -2.6338    2.5742   -0.8911 H   0  0  0  0  0
   -2.6348    2.5732    0.8904 H   0  0  0  0  0
   -1.2983    3.3447    0.0128 H   0  0  0  0  0
  1  3  1  0  0  0
  2  4  1  0  0  0
  2 10  1  0  0  0
  3  4  1  0  0  0
  3  6  2  0  0  0
  4  7  2  0  0  0
  5  7  1  0  0  0
  5  8  2  0  0  0
  5  9  1  0  0  0
  6  8  1  0  0  0
  6 11  1  0  0  0
  7 12  1  0  0  0
  8 13  1  0  0  0
  9 14  1  0  0  0
  9 15  1  0  0  0
  9 16  1  0  0  0
M  END
> <EXTREG>
2-chloro-5-methylphenol

> <# Confs.>
1

> <LIC50>
0.393

> <Name>
2-chloro-5-methylphenol

$$$$
  3-isopopylphenol
XX    ILIB04271811163D

 22 22  0  0  1  0              1 V2000
    2.2041    0.0080    0.0080 O   0  0  0  0  0
    0.8450    0.0080    0.0080 C   0  0  0  0  0
   -1.2549   -1.2129   -0.0080 C   0  0  0  0  0
    0.1450   -1.2114    0.0078 C   0  0  0  0  0
    0.1450    1.2129    0.0080 C   0  0  0  0  0
   -1.9546    0.0080   -0.0080 C   0  0  0  0  0
   -1.2549    1.2129    0.0078 C   0  0  0  0  0
   -2.0068   -2.5156   -0.0084 C   0  0  0  0  0
   -1.6348   -3.3262    1.2588 C   0  0  0  0  0
   -3.5254   -2.2344   -0.0120 C   0  0  0  0  0
    2.5410    0.9824    0.0104 H   0  0  0  0  0
    0.6873   -2.1504    0.0078 H   0  0  0  0  0
    0.6868    2.1514    0.0144 H   0  0  0  0  0
   -3.0381    0.0112   -0.0144 H   0  0  0  0  0
   -1.7969    2.1514    0.0078 H   0  0  0  0  0
   -1.7427   -3.0879   -0.8928 H   0  0  0  0  0
   -0.5620   -3.5254    1.2593 H   0  0  0  0  0
   -1.8989   -2.7549    2.1494 H   0  0  0  0  0
   -2.1797   -4.2715    1.2578 H   0  0  0  0  0
   -3.7900   -1.6626    0.8877 H   0  0  0  0  0
   -3.7881   -1.6616   -0.8938 H   0  0  0  0  0
   -4.0703   -3.1787   -0.0152 H   0  0  0  0  0
  1  2  1  0  0  0
  1 11  1  0  0  0
  2  4  1  0  0  0
  2  5  2  0  0  0
  3  4  2  0  0  0
  3  6  1  0  0  0
  3  8  1  0  0  0
  4 12  1  0  0  0
  5  7  1  0  0  0
  5 13  1  0  0  0
  6  7  2  0  0  0
  6 14  1  0  0  0
  7 15  1  0  0  0
  8  9  1  0  0  0
  8 10  1  0  0  0
  8 16  1  0  0  0
  9 17  1  0  0  0
  9 18  1  0  0  0
  9 19  1  0  0  0
 10 20  1  0  0  0
 10 21  1  0  0  0
 10 22  1  0  0  0
M  END
> <EXTREG>
3-isopopylphenol

> <# Confs.>
1

> <LIC50>
0.612

> <Name>
3-isopopylphenol

$$$$
  4-hydroxybenzamide
XX    ILIB04271811163D

 17 17  0  0  1  0              1 V2000
    3.3457    0.0096    0.0080 O   0  0  0  0  0
   -2.8906    1.0527   -0.0084 O   0  0  0  0  0
   -2.9502   -1.1533   -0.0120 N   0  0  0  0  0
    1.9858    0.0096    0.0080 C   0  0  0  0  0
   -0.8137    0.0096   -0.0080 C   0  0  0  0  0
    1.2861   -1.2114    0.0078 C   0  0  0  0  0
    1.2861    1.2129    0.0080 C   0  0  0  0  0
   -0.1138   -1.2129   -0.0080 C   0  0  0  0  0
   -0.1138    1.2129    0.0078 C   0  0  0  0  0
   -2.2832    0.0128   -0.0084 C   0  0  0  0  0
    3.6816    0.9824    0.0104 H   0  0  0  0  0
   -2.4463   -2.0264   -0.0120 H   0  0  0  0  0
   -3.9580   -1.1528   -0.0148 H   0  0  0  0  0
    1.8281   -2.1504    0.0078 H   0  0  0  0  0
    1.8281    2.1514    0.0144 H   0  0  0  0  0
   -0.6555   -2.1514   -0.0144 H   0  0  0  0  0
   -0.6558    2.1514    0.0078 H   0  0  0  0  0
  1  4  1  0  0  0
  1 11  1  0  0  0
  2 10  2  0  0  0
  3 10  1  0  0  0
  3 12  1  0  0  0
  3 13  1  0  0  0
  4  6  1  0  0  0
  4  7  2  0  0  0
  5  8  1  0  0  0
  5  9  2  0  0  0
  5 10  1  0  0  0
  6  8  2  0  0  0
  6 14  1  0  0  0
  7  9  1  0  0  0
  7 15  1  0  0  0
  8 16  1  0  0  0
  9 17  1  0  0  0
M  END
> <EXTREG>
4-hydroxybenzamide

> <# Confs.>
1

> <LIC50>
-0.78

> <Name>
4-hydroxybenzamide

$$$$
  3-ethylphenol
XX    ILIB04271811163D

 19 19  0  0  1  0              1 V2000
    2.2041    0.0080    0.0080 O   0  0  0  0  0
    0.8450    0.0080    0.0080 C   0  0  0  0  0
   -1.2549   -1.2129   -0.0080 C   0  0  0  0  0
    0.1450   -1.2114    0.0078 C   0  0  0  0  0
    0.1450    1.2129    0.0080 C   0  0  0  0  0
   -1.9546    0.0080   -0.0080 C   0  0  0  0  0
   -1.2549    1.2129    0.0078 C   0  0  0  0  0
   -2.0068   -2.5156   -0.0084 C   0  0  0  0  0
   -3.5176   -2.2354   -0.0120 C   0  0  0  0  0
    2.5410    0.9824    0.0104 H   0  0  0  0  0
    0.6873   -2.1504    0.0078 H   0  0  0  0  0
    0.6868    2.1514    0.0144 H   0  0  0  0  0
   -3.0381    0.0112   -0.0144 H   0  0  0  0  0
   -1.7969    2.1514    0.0078 H   0  0  0  0  0
   -1.7427   -3.0879   -0.8928 H   0  0  0  0  0
   -1.7441   -3.0879    0.8887 H   0  0  0  0  0
   -3.7822   -1.6641    0.8877 H   0  0  0  0  0
   -3.7812   -1.6631   -0.8938 H   0  0  0  0  0
   -4.0625   -3.1807   -0.0152 H   0  0  0  0  0
  1  2  1  0  0  0
  1 10  1  0  0  0
  2  4  1  0  0  0
  2  5  2  0  0  0
  3  4  2  0  0  0
  3  6  1  0  0  0
  3  8  1  0  0  0
  4 11  1  0  0  0
  5  7  1  0  0  0
  5 12  1  0  0  0
  6  7  2  0  0  0
  6 13  1  0  0  0
  7 14  1  0  0  0
  8  9  1  0  0  0
  8 15  1  0  0  0
  8 16  1  0  0  0
  9 17  1  0  0  0
  9 18  1  0  0  0
  9 19  1  0  0  0
M  END
> <EXTREG>
3-ethylphenol

> <# Confs.>
1

> <LIC50>
0.228

> <Name>
3-ethylphenol

$$$$
  3-hydroxy-benzyl_alcohol
XX    ILIB04271811163D

 17 17  0  0  1  0              1 V2000
   -2.4424    0.5886   -0.0128 O   0  0  0  0  0
    3.1719   -1.6655    0.0120 O   0  0  0  0  0
   -1.0825    0.5884   -0.0096 C   0  0  0  0  0
    1.0171   -0.6238    0.0128 C   0  0  0  0  0
   -0.3826   -0.6248   -0.0096 C   0  0  0  0  0
   -0.3826    1.8008    0.0128 C   0  0  0  0  0
    1.7173    0.5884    0.0112 C   0  0  0  0  0
    1.0171    1.8008    0.0112 C   0  0  0  0  0
    1.7700   -1.9268    0.0128 C   0  0  0  0  0
   -2.7783    1.5708   -0.0112 H   0  0  0  0  0
    3.6826   -2.5693    0.0120 H   0  0  0  0  0
   -0.9243   -1.5635   -0.0112 H   0  0  0  0  0
   -0.9246    2.7393    0.0128 H   0  0  0  0  0
    2.8008    0.5884    0.0088 H   0  0  0  0  0
    1.5591    2.7393    0.0088 H   0  0  0  0  0
    1.5063   -2.4990    0.8906 H   0  0  0  0  0
    1.5073   -2.4980   -0.8906 H   0  0  0  0  0
  1  3  1  0  0  0
  1 10  1  0  0  0
  2  9  1  0  0  0
  2 11  1  0  0  0
  3  5  1  0  0  0
  3  6  2  0  0  0
  4  5  2  0  0  0
  4  7  1  0  0  0
  4  9  1  0  0  0
  5 12  1  0  0  0
  6  8  1  0  0  0
  6 13  1  0  0  0
  7  8  2  0  0  0
  7 14  1  0  0  0
  8 15  1  0  0  0
  9 16  1  0  0  0
  9 17  1  0  0  0
M  END
> <EXTREG>
3-hydroxy-benzyl_alcohol

> <# Confs.>
1

> <LIC50>
-1.043

> <Name>
3-hydroxy-benzyl_alcohol

$$$$
  3-hydroxy-4-methoxybenzaldehyde
XX    ILIB04271811163D

 19 19  0  0  1  0              1 V2000
    0.8250    2.3906    0.0080 O   0  0  0  0  0
    2.2041    0.0080    0.0080 O   0  0  0  0  0
   -3.2041   -2.4854   -0.0116 O   0  0  0  0  0
    0.1450    1.2129    0.0080 C   0  0  0  0  0
    0.8450    0.0080    0.0080 C   0  0  0  0  0
   -1.2549   -1.2129   -0.0080 C   0  0  0  0  0
    0.1450   -1.2114    0.0078 C   0  0  0  0  0
   -1.2549    1.2129    0.0078 C   0  0  0  0  0
   -1.9546    0.0080   -0.0080 C   0  0  0  0  0
   -1.9897   -2.4854   -0.0080 C   0  0  0  0  0
   -0.1017    3.4736    0.0144 C   0  0  0  0  0
    2.5410    0.9824    0.0104 H   0  0  0  0  0
    0.6873   -2.1504    0.0078 H   0  0  0  0  0
   -1.7969    2.1514    0.0078 H   0  0  0  0  0
   -3.0381    0.0112   -0.0144 H   0  0  0  0  0
   -1.4438   -3.4307   -0.0080 H   0  0  0  0  0
   -0.7283    3.4170   -0.8894 H   0  0  0  0  0
   -0.7295    3.4160    0.8921 H   0  0  0  0  0
    0.4437    4.4180    0.0100 H   0  0  0  0  0
  1  4  1  0  0  0
  1 11  1  0  0  0
  2  5  1  0  0  0
  2 12  1  0  0  0
  3 10  2  0  0  0
  4  5  2  0  0  0
  4  8  1  0  0  0
  5  7  1  0  0  0
  6  7  2  0  0  0
  6  9  1  0  0  0
  6 10  1  0  0  0
  7 13  1  0  0  0
  8  9  2  0  0  0
  8 14  1  0  0  0
  9 15  1  0  0  0
 10 16  1  0  0  0
 11 17  1  0  0  0
 11 18  1  0  0  0
 11 19  1  0  0  0
M  END
> <EXTREG>
3-hydroxy-4-methoxybenzaldehyde

> <# Confs.>
1

> <LIC50>
-0.141

> <Name>
3-hydroxy-4-methoxybenzaldehyde

$$$$
  4-ethoxyphenol
XX    ILIB04271811163D

 20 20  0  0  1  0              1 V2000
   -1.9346   -2.3906   -0.0080 O   0  0  0  0  0
    2.2041    0.0080    0.0080 O   0  0  0  0  0
   -1.2549   -1.2129   -0.0080 C   0  0  0  0  0
    0.8450    0.0080    0.0080 C   0  0  0  0  0
    0.1450   -1.2114    0.0078 C   0  0  0  0  0
   -1.9546    0.0080   -0.0080 C   0  0  0  0  0
    0.1450    1.2129    0.0080 C   0  0  0  0  0
   -1.2549    1.2129    0.0078 C   0  0  0  0  0
   -3.3359   -2.1299   -0.0116 C   0  0  0  0  0
   -4.1035   -3.4609   -0.0080 C   0  0  0  0  0
    2.5410    0.9824    0.0104 H   0  0  0  0  0
    0.6873   -2.1504    0.0078 H   0  0  0  0  0
   -3.0381    0.0112   -0.0144 H   0  0  0  0  0
    0.6868    2.1514    0.0144 H   0  0  0  0  0
   -1.7969    2.1514    0.0078 H   0  0  0  0  0
   -3.6006   -1.5586    0.8879 H   0  0  0  0  0
   -3.5996   -1.5576   -0.8936 H   0  0  0  0  0
   -3.8398   -4.0332   -0.8948 H   0  0  0  0  0
   -3.8418   -4.0332    0.8867 H   0  0  0  0  0
   -5.1758   -3.2617   -0.0092 H   0  0  0  0  0
  1  3  1  0  0  0
  1  9  1  0  0  0
  2  4  1  0  0  0
  2 11  1  0  0  0
  3  5  2  0  0  0
  3  6  1  0  0  0
  4  5  1  0  0  0
  4  7  2  0  0  0
  5 12  1  0  0  0
  6  8  2  0  0  0
  6 13  1  0  0  0
  7  8  1  0  0  0
  7 14  1  0  0  0
  8 15  1  0  0  0
  9 10  1  0  0  0
  9 16  1  0  0  0
  9 17  1  0  0  0
 10 18  1  0  0  0
 10 19  1  0  0  0
 10 20  1  0  0  0
M  END
> <EXTREG>
4-ethoxyphenol

> <# Confs.>
1

> <LIC50>
0.013

> <Name>
4-ethoxyphenol

$$$$
  3-iodophenol
XX    ILIB04271811163D

 13 13  0  0  1  0              1 V2000
   -2.2793   -2.9883   -0.0100 I   0  0  0  0  0
    2.2041    0.0080    0.0080 O   0  0  0  0  0
   -1.2549   -1.2129   -0.0080 C   0  0  0  0  0
    0.8450    0.0080    0.0080 C   0  0  0  0  0
    0.1450   -1.2114    0.0078 C   0  0  0  0  0
   -1.9546    0.0080   -0.0080 C   0  0  0  0  0
    0.1450    1.2129    0.0080 C   0  0  0  0  0
   -1.2549    1.2129    0.0078 C   0  0  0  0  0
    2.5410    0.9824    0.0104 H   0  0  0  0  0
    0.6873   -2.1504    0.0078 H   0  0  0  0  0
   -3.0381    0.0112   -0.0144 H   0  0  0  0  0
    0.6868    2.1514    0.0144 H   0  0  0  0  0
   -1.7969    2.1514    0.0078 H   0  0  0  0  0
  1  3  1  0  0  0
  2  4  1  0  0  0
  2  9  1  0  0  0
  3  5  2  0  0  0
  3  6  1  0  0  0
  4  5  1  0  0  0
  4  7  2  0  0  0
  5 10  1  0  0  0
  6  8  2  0  0  0
  6 11  1  0  0  0
  7  8  1  0  0  0
  7 12  1  0  0  0
  8 13  1  0  0  0
M  END
> <EXTREG>
3-iodophenol

> <# Confs.>
1

> <LIC50>
1.119

> <Name>
3-iodophenol

$$$$
  4-propylphenol
XX    ILIB04271811163D

 22 22  0  0  1  0              1 V2000
    2.2041    0.0080    0.0080 O   0  0  0  0  0
    0.8450    0.0080    0.0080 C   0  0  0  0  0
   -1.9546    0.0080   -0.0080 C   0  0  0  0  0
    0.1450   -1.2114    0.0078 C   0  0  0  0  0
    0.1450    1.2129    0.0080 C   0  0  0  0  0
   -1.2549   -1.2129   -0.0080 C   0  0  0  0  0
   -1.2549    1.2129    0.0078 C   0  0  0  0  0
   -3.4600    0.0128   -0.0084 C   0  0  0  0  0
   -3.9717    1.4497   -0.0144 C   0  0  0  0  0
   -5.5078    1.4502   -0.0116 C   0  0  0  0  0
    2.5410    0.9824    0.0104 H   0  0  0  0  0
    0.6873   -2.1504    0.0078 H   0  0  0  0  0
    0.6868    2.1514    0.0144 H   0  0  0  0  0
   -1.7964   -2.1514   -0.0144 H   0  0  0  0  0
   -1.7969    2.1514    0.0078 H   0  0  0  0  0
   -3.8223   -0.5129   -0.8931 H   0  0  0  0  0
   -3.8242   -0.5137    0.8882 H   0  0  0  0  0
   -3.6084    1.9634    0.8892 H   0  0  0  0  0
   -3.6074    1.9644   -0.8921 H   0  0  0  0  0
   -5.8711    0.9363   -0.8940 H   0  0  0  0  0
   -5.8730    0.9355    0.8872 H   0  0  0  0  0
   -5.8711    2.4785   -0.0112 H   0  0  0  0  0
  1  2  1  0  0  0
  1 11  1  0  0  0
  2  4  1  0  0  0
  2  5  2  0  0  0
  3  6  1  0  0  0
  3  7  2  0  0  0
  3  8  1  0  0  0
  4  6  2  0  0  0
  4 12  1  0  0  0
  5  7  1  0  0  0
  5 13  1  0  0  0
  6 14  1  0  0  0
  7 15  1  0  0  0
  8  9  1  0  0  0
  8 16  1  0  0  0
  8 17  1  0  0  0
  9 10  1  0  0  0
  9 18  1  0  0  0
  9 19  1  0  0  0
 10 20  1  0  0  0
 10 21  1  0  0  0
 10 22  1  0  0  0
M  END
> <EXTREG>
4-propylphenol

> <# Confs.>
1

> <LIC50>
0.643

> <Name>
4-propylphenol

$$$$
  2-hydroxybenzamide
XX    ILIB04271811163D

 17 17  0  0  1  0              1 V2000
    2.3613    0.6836    0.0080 O   0  0  0  0  0
    2.2520   -1.8013    0.0144 O   0  0  0  0  0
    0.3713   -2.9561   -0.0080 N   0  0  0  0  0
    1.0020    0.6836    0.0080 C   0  0  0  0  0
    0.3019   -0.5288    0.0078 C   0  0  0  0  0
    0.3019    1.8960    0.0080 C   0  0  0  0  0
   -1.0977   -0.5298   -0.0080 C   0  0  0  0  0
   -1.0977    1.8960    0.0078 C   0  0  0  0  0
   -1.7979    0.6836   -0.0080 C   0  0  0  0  0
    1.0371   -1.8013    0.0078 C   0  0  0  0  0
    2.6973    1.6655    0.0104 H   0  0  0  0  0
   -0.6365   -2.9561   -0.0136 H   0  0  0  0  0
    0.8755   -3.8291   -0.0080 H   0  0  0  0  0
    0.8440    2.8340    0.0144 H   0  0  0  0  0
   -1.6396   -1.4688   -0.0144 H   0  0  0  0  0
   -1.6396    2.8340    0.0078 H   0  0  0  0  0
   -2.8818    0.6836   -0.0144 H   0  0  0  0  0
  1  4  1  0  0  0
  1 11  1  0  0  0
  2 10  2  0  0  0
  3 10  1  0  0  0
  3 12  1  0  0  0
  3 13  1  0  0  0
  4  5  1  0  0  0
  4  6  2  0  0  0
  5  7  2  0  0  0
  5 10  1  0  0  0
  6  8  1  0  0  0
  6 14  1  0  0  0
  7  9  1  0  0  0
  7 15  1  0  0  0
  8  9  2  0  0  0
  8 16  1  0  0  0
  9 17  1  0  0  0
M  END
> <EXTREG>
2-hydroxybenzamide

> <# Confs.>
1

> <LIC50>
-0.242

> <Name>
2-hydroxybenzamide

$$$$
  3-chloro-5-methoxyphenol
XX    ILIB04271811163D

 17 17  0  0  1  0              1 V2000
   -2.1045   -2.6846   -0.0088 Cl  0  0  0  0  0
   -1.9346    2.3906    0.0078 O   0  0  0  0  0
    2.2041    0.0080    0.0080 O   0  0  0  0  0
   -1.2549   -1.2129   -0.0080 C   0  0  0  0  0
   -1.2549    1.2129    0.0078 C   0  0  0  0  0
    0.8450    0.0080    0.0080 C   0  0  0  0  0
   -1.9546    0.0080   -0.0080 C   0  0  0  0  0
    0.1450   -1.2114    0.0078 C   0  0  0  0  0
    0.1450    1.2129    0.0080 C   0  0  0  0  0
   -1.0078    3.4736    0.0088 C   0  0  0  0  0
    2.5410    0.9824    0.0104 H   0  0  0  0  0
   -3.0381    0.0112   -0.0144 H   0  0  0  0  0
    0.6873   -2.1504    0.0078 H   0  0  0  0  0
    0.6868    2.1514    0.0144 H   0  0  0  0  0
   -0.3816    3.4160    0.8921 H   0  0  0  0  0
   -0.3805    3.4170   -0.8892 H   0  0  0  0  0
   -1.5537    4.4180    0.0088 H   0  0  0  0  0
  1  4  1  0  0  0
  2  5  1  0  0  0
  2 10  1  0  0  0
  3  6  1  0  0  0
  3 11  1  0  0  0
  4  7  1  0  0  0
  4  8  2  0  0  0
  5  7  2  0  0  0
  5  9  1  0  0  0
  6  8  1  0  0  0
  6  9  2  0  0  0
  7 12  1  0  0  0
  8 13  1  0  0  0
  9 14  1  0  0  0
 10 15  1  0  0  0
 10 16  1  0  0  0
 10 17  1  0  0  0
M  END
> <EXTREG>
3-chloro-5-methoxyphenol

> <# Confs.>
1

> <LIC50>
0.757

> <Name>
3-chloro-5-methoxyphenol

$$$$
  3-ethoxy-4-methoxyphenol
XX    ILIB04271811163D

 24 24  0  0  1  0              1 V2000
   -1.9346   -2.3906   -0.0080 O   0  0  0  0  0
   -3.3145    0.0112   -0.0080 O   0  0  0  0  0
    2.2041    0.0080    0.0080 O   0  0  0  0  0
   -1.2549   -1.2129   -0.0080 C   0  0  0  0  0
   -1.9546    0.0080   -0.0080 C   0  0  0  0  0
    0.8450    0.0080    0.0080 C   0  0  0  0  0
    0.1450   -1.2114    0.0078 C   0  0  0  0  0
   -1.2549    1.2129    0.0078 C   0  0  0  0  0
    0.1450    1.2129    0.0080 C   0  0  0  0  0
   -3.3359   -2.1299   -0.0116 C   0  0  0  0  0
   -3.7900    1.3452   -0.0144 C   0  0  0  0  0
   -4.1035   -3.4609   -0.0080 C   0  0  0  0  0
    2.5410    0.9824    0.0104 H   0  0  0  0  0
    0.6873   -2.1504    0.0078 H   0  0  0  0  0
   -1.7969    2.1514    0.0078 H   0  0  0  0  0
    0.6868    2.1514    0.0144 H   0  0  0  0  0
   -3.6006   -1.5586    0.8879 H   0  0  0  0  0
   -3.5996   -1.5576   -0.8936 H   0  0  0  0  0
   -3.4268    1.8589    0.8894 H   0  0  0  0  0
   -3.4248    1.8599   -0.8921 H   0  0  0  0  0
   -4.8809    1.3452   -0.0100 H   0  0  0  0  0
   -3.8398   -4.0332   -0.8948 H   0  0  0  0  0
   -3.8418   -4.0332    0.8867 H   0  0  0  0  0
   -5.1758   -3.2617   -0.0092 H   0  0  0  0  0
  1  4  1  0  0  0
  1 10  1  0  0  0
  2  5  1  0  0  0
  2 11  1  0  0  0
  3  6  1  0  0  0
  3 13  1  0  0  0
  4  5  1  0  0  0
  4  7  2  0  0  0
  5  8  2  0  0  0
  6  7  1  0  0  0
  6  9  2  0  0  0
  7 14  1  0  0  0
  8  9  1  0  0  0
  8 15  1  0  0  0
  9 16  1  0  0  0
 10 12  1  0  0  0
 10 17  1  0  0  0
 10 18  1  0  0  0
 11 19  1  0  0  0
 11 20  1  0  0  0
 11 21  1  0  0  0
 12 22  1  0  0  0
 12 23  1  0  0  0
 12 24  1  0  0  0
M  END
> <EXTREG>
3-ethoxy-4-methoxyphenol

> <# Confs.>
1

> <LIC50>
-0.299

> <Name>
3-ethoxy-4-methoxyphenol

$$$$
  2-bromo-4-methylphenol
XX    ILIB04271811163D

 16 16  0  0  1  0              1 V2000
   -2.1797   -2.8145   -0.0092 Br  0  0  0  0  0
    2.2041    0.0080    0.0080 O   0  0  0  0  0
   -1.2549   -1.2129   -0.0080 C   0  0  0  0  0
    0.8450    0.0080    0.0080 C   0  0  0  0  0
   -1.9546    0.0080   -0.0080 C   0  0  0  0  0
    0.1450   -1.2114    0.0078 C   0  0  0  0  0
    0.1450    1.2129    0.0080 C   0  0  0  0  0
   -1.2549    1.2129    0.0078 C   0  0  0  0  0
   -3.4600    0.0128   -0.0084 C   0  0  0  0  0
    2.5410    0.9824    0.0104 H   0  0  0  0  0
    0.6873   -2.1504    0.0078 H   0  0  0  0  0
    0.6868    2.1514    0.0144 H   0  0  0  0  0
   -1.7969    2.1514    0.0078 H   0  0  0  0  0
   -3.8223   -0.5129   -0.8931 H   0  0  0  0  0
   -3.8242   -0.5137    0.8882 H   0  0  0  0  0
   -3.8232    1.0293   -0.0152 H   0  0  0  0  0
  1  3  1  0  0  0
  2  4  1  0  0  0
  2 10  1  0  0  0
  3  5  1  0  0  0
  3  6  2  0  0  0
  4  6  1  0  0  0
  4  7  2  0  0  0
  5  8  2  0  0  0
  5  9  1  0  0  0
  6 11  1  0  0  0
  7  8  1  0  0  0
  7 12  1  0  0  0
  8 13  1  0  0  0
  9 14  1  0  0  0
  9 15  1  0  0  0
  9 16  1  0  0  0
M  END
> <EXTREG>
2-bromo-4-methylphenol

> <# Confs.>
1

> <LIC50>
0.599

> <Name>
2-bromo-4-methylphenol

$$$$
  2-3-5-trimethylphenol
XX    ILIB04271811163D

 22 22  0  0  1  0              1 V2000
    2.2041    0.0080    0.0080 O   0  0  0  0  0
    0.8450    0.0080    0.0080 C   0  0  0  0  0
    0.1450   -1.2114    0.0078 C   0  0  0  0  0
   -1.2549   -1.2129   -0.0080 C   0  0  0  0  0
   -1.2549    1.2129    0.0078 C   0  0  0  0  0
    0.1450    1.2129    0.0080 C   0  0  0  0  0
   -1.9546    0.0080   -0.0080 C   0  0  0  0  0
    0.8979   -2.5146    0.0078 C   0  0  0  0  0
   -2.0068   -2.5156   -0.0084 C   0  0  0  0  0
   -2.0068    2.5156    0.0078 C   0  0  0  0  0
    2.5410    0.9824    0.0104 H   0  0  0  0  0
    0.6868    2.1514    0.0144 H   0  0  0  0  0
   -3.0381    0.0112   -0.0144 H   0  0  0  0  0
    0.6338   -3.0869    0.8904 H   0  0  0  0  0
    0.6350   -3.0859   -0.8911 H   0  0  0  0  0
    1.9702   -2.3145    0.0128 H   0  0  0  0  0
   -1.7427   -3.0879   -0.8928 H   0  0  0  0  0
   -1.7441   -3.0879    0.8887 H   0  0  0  0  0
   -3.0791   -2.3164   -0.0112 H   0  0  0  0  0
   -2.6338    2.5742   -0.8911 H   0  0  0  0  0
   -2.6348    2.5732    0.8904 H   0  0  0  0  0
   -1.2983    3.3447    0.0128 H   0  0  0  0  0
  1  2  1  0  0  0
  1 11  1  0  0  0
  2  3  1  0  0  0
  2  6  2  0  0  0
  3  4  2  0  0  0
  3  8  1  0  0  0
  4  7  1  0  0  0
  4  9  1  0  0  0
  5  6  1  0  0  0
  5  7  2  0  0  0
  5 10  1  0  0  0
  6 12  1  0  0  0
  7 13  1  0  0  0
  8 14  1  0  0  0
  8 15  1  0  0  0
  8 16  1  0  0  0
  9 17  1  0  0  0
  9 18  1  0  0  0
  9 19  1  0  0  0
 10 20  1  0  0  0
 10 21  1  0  0  0
 10 22  1  0  0  0
M  END
> <EXTREG>
2-3-5-trimethylphenol

> <# Confs.>
1

> <LIC50>
0.36

> <Name>
2-3-5-trimethylphenol

$$$$
  4-bromo-2-6-dichlorophenol
XX    ILIB04271811163D

 13 13  0  0  1  0              1 V2000
   -3.8047    0.0128   -0.0092 Br  0  0  0  0  0
    0.9954   -2.6836    0.0078 Cl  0  0  0  0  0
    0.9949    2.6846    0.0088 Cl  0  0  0  0  0
    2.2041    0.0080    0.0080 O   0  0  0  0  0
   -1.9546    0.0080   -0.0080 C   0  0  0  0  0
    0.1450   -1.2114    0.0078 C   0  0  0  0  0
    0.1450    1.2129    0.0080 C   0  0  0  0  0
    0.8450    0.0080    0.0080 C   0  0  0  0  0
   -1.2549   -1.2129   -0.0080 C   0  0  0  0  0
   -1.2549    1.2129    0.0078 C   0  0  0  0  0
    2.5410    0.9824    0.0104 H   0  0  0  0  0
   -1.7964   -2.1514   -0.0144 H   0  0  0  0  0
   -1.7969    2.1514    0.0078 H   0  0  0  0  0
  1  5  1  0  0  0
  2  6  1  0  0  0
  3  7  1  0  0  0
  4  8  1  0  0  0
  4 11  1  0  0  0
  5  9  1  0  0  0
  5 10  2  0  0  0
  6  8  1  0  0  0
  6  9  2  0  0  0
  7  8  2  0  0  0
  7 10  1  0  0  0
  9 12  1  0  0  0
 10 13  1  0  0  0
M  END
> <EXTREG>
4-bromo-2-6-dichlorophenol

> <# Confs.>
1

> <LIC50>
1.778

> <Name>
4-bromo-2-6-dichlorophenol

$$$$
  4-hydroxypropiophenone
XX    ILIB04271811163D

 23 23  0  0  1  0              1 V2000
   -3.3145    0.0112   -0.0080 O   0  0  0  0  0
    2.2041    0.0080    0.0080 O   0  0  0  0  0
   -1.9546    0.0080   -0.0080 C   0  0  0  0  0
    0.8450    0.0080    0.0080 C   0  0  0  0  0
   -1.2549   -1.2129   -0.0080 C   0  0  0  0  0
   -1.2549    1.2129    0.0078 C   0  0  0  0  0
    0.1450   -1.2114    0.0078 C   0  0  0  0  0
    0.1450    1.2129    0.0080 C   0  0  0  0  0
   -3.7900    1.3452   -0.0144 C   0  0  0  0  0
   -5.3262    1.3452   -0.0116 C   0  0  0  0  0
   -5.8379    2.7939   -0.0104 C   0  0  0  0  0
    2.5410    0.9824    0.0104 H   0  0  0  0  0
   -1.7964   -2.1514   -0.0144 H   0  0  0  0  0
   -1.7969    2.1514    0.0078 H   0  0  0  0  0
    0.6873   -2.1504    0.0078 H   0  0  0  0  0
    0.6868    2.1514    0.0144 H   0  0  0  0  0
   -3.4268    1.8589    0.8894 H   0  0  0  0  0
   -3.4248    1.8599   -0.8921 H   0  0  0  0  0
   -5.6895    0.8315   -0.8940 H   0  0  0  0  0
   -5.6914    0.8308    0.8875 H   0  0  0  0  0
   -5.4746    3.3086    0.8884 H   0  0  0  0  0
   -5.4746    3.3086   -0.8928 H   0  0  0  0  0
   -6.9297    2.7939   -0.0136 H   0  0  0  0  0
  1  3  1  0  0  0
  1  9  1  0  0  0
  2  4  1  0  0  0
  2 12  1  0  0  0
  3  5  1  0  0  0
  3  6  2  0  0  0
  4  7  1  0  0  0
  4  8  2  0  0  0
  5  7  2  0  0  0
  5 13  1  0  0  0
  6  8  1  0  0  0
  6 14  1  0  0  0
  7 15  1  0  0  0
  8 16  1  0  0  0
  9 10  1  0  0  0
  9 17  1  0  0  0
  9 18  1  0  0  0
 10 11  1  0  0  0
 10 19  1  0  0  0
 10 20  1  0  0  0
 11 21  1  0  0  0
 11 22  1  0  0  0
 11 23  1  0  0  0
M  END
> <EXTREG>
4-hydroxypropiophenone

> <# Confs.>
1

> <LIC50>
0.053

> <Name>
4-hydroxypropiophenone

$$$$
  4-bromo-3-5-dimethylphenol
XX    ILIB04271811163D

 19 19  0  0  1  0              1 V2000
   -3.8047    0.0128   -0.0092 Br  0  0  0  0  0
    2.2041    0.0080    0.0080 O   0  0  0  0  0
   -1.9546    0.0080   -0.0080 C   0  0  0  0  0
    0.8450    0.0080    0.0080 C   0  0  0  0  0
   -1.2549   -1.2129   -0.0080 C   0  0  0  0  0
   -1.2549    1.2129    0.0078 C   0  0  0  0  0
    0.1450   -1.2114    0.0078 C   0  0  0  0  0
    0.1450    1.2129    0.0080 C   0  0  0  0  0
   -2.0068   -2.5156   -0.0084 C   0  0  0  0  0
   -2.0068    2.5156    0.0078 C   0  0  0  0  0
    2.5410    0.9824    0.0104 H   0  0  0  0  0
    0.6873   -2.1504    0.0078 H   0  0  0  0  0
    0.6868    2.1514    0.0144 H   0  0  0  0  0
   -1.7427   -3.0879   -0.8928 H   0  0  0  0  0
   -1.7441   -3.0879    0.8887 H   0  0  0  0  0
   -3.0791   -2.3164   -0.0112 H   0  0  0  0  0
   -2.6338    2.5742   -0.8911 H   0  0  0  0  0
   -2.6348    2.5732    0.8904 H   0  0  0  0  0
   -1.2983    3.3447    0.0128 H   0  0  0  0  0
  1  3  1  0  0  0
  2  4  1  0  0  0
  2 11  1  0  0  0
  3  5  1  0  0  0
  3  6  2  0  0  0
  4  7  1  0  0  0
  4  8  2  0  0  0
  5  7  2  0  0  0
  5  9  1  0  0  0
  6  8  1  0  0  0
  6 10  1  0  0  0
  7 12  1  0  0  0
  8 13  1  0  0  0
  9 14  1  0  0  0
  9 15  1  0  0  0
  9 16  1  0  0  0
 10 17  1  0  0  0
 10 18  1  0  0  0
 10 19  1  0  0  0
M  END
> <EXTREG>
4-bromo-3-5-dimethylphenol

> <# Confs.>
1

> <LIC50>
1.268

> <Name>
4-bromo-3-5-dimethylphenol

$$$$
  4-bromo-6-chloro-2-methylphenol
XX    ILIB04271811163D

 16 16  0  0  1  0              1 V2000
   -3.8047    0.0128   -0.0092 Br  0  0  0  0  0
    0.9949    2.6846    0.0088 Cl  0  0  0  0  0
    2.2041    0.0080    0.0080 O   0  0  0  0  0
   -1.9546    0.0080   -0.0080 C   0  0  0  0  0
    0.1450    1.2129    0.0080 C   0  0  0  0  0
    0.8450    0.0080    0.0080 C   0  0  0  0  0
    0.1450   -1.2114    0.0078 C   0  0  0  0  0
   -1.2549    1.2129    0.0078 C   0  0  0  0  0
   -1.2549   -1.2129   -0.0080 C   0  0  0  0  0
    0.8979   -2.5146    0.0078 C   0  0  0  0  0
    2.5410    0.9824    0.0104 H   0  0  0  0  0
   -1.7969    2.1514    0.0078 H   0  0  0  0  0
   -1.7964   -2.1514   -0.0144 H   0  0  0  0  0
    0.6338   -3.0869    0.8904 H   0  0  0  0  0
    0.6350   -3.0859   -0.8911 H   0  0  0  0  0
    1.9702   -2.3145    0.0128 H   0  0  0  0  0
  1  4  1  0  0  0
  2  5  1  0  0  0
  3  6  1  0  0  0
  3 11  1  0  0  0
  4  8  2  0  0  0
  4  9  1  0  0  0
  5  6  2  0  0  0
  5  8  1  0  0  0
  6  7  1  0  0  0
  7  9  2  0  0  0
  7 10  1  0  0  0
  8 12  1  0  0  0
  9 13  1  0  0  0
 10 14  1  0  0  0
 10 15  1  0  0  0
 10 16  1  0  0  0
M  END
> <EXTREG>
4-bromo-6-chloro-2-methylphenol

> <# Confs.>
1

> <LIC50>
1.276

> <Name>
4-bromo-6-chloro-2-methylphenol

$$$$
  4-cyanophenol
XX    ILIB04271811163D

 14 14  0  0  1  0              1 V2000
    2.2041    0.0080    0.0080 O   0  0  0  0  0
   -4.5996    0.0080   -0.0116 N   0  0  0  0  0
    0.8450    0.0080    0.0080 C   0  0  0  0  0
   -1.9546    0.0080   -0.0080 C   0  0  0  0  0
    0.1450   -1.2114    0.0078 C   0  0  0  0  0
    0.1450    1.2129    0.0080 C   0  0  0  0  0
   -1.2549   -1.2129   -0.0080 C   0  0  0  0  0
   -1.2549    1.2129    0.0078 C   0  0  0  0  0
   -3.4600    0.0128   -0.0084 C   0  0  0  0  0
    2.5410    0.9824    0.0104 H   0  0  0  0  0
    0.6873   -2.1504    0.0078 H   0  0  0  0  0
    0.6868    2.1514    0.0144 H   0  0  0  0  0
   -1.7964   -2.1514   -0.0144 H   0  0  0  0  0
   -1.7969    2.1514    0.0078 H   0  0  0  0  0
  1  3  1  0  0  0
  1 10  1  0  0  0
  2  9  3  0  0  0
  3  5  1  0  0  0
  3  6  2  0  0  0
  4  7  1  0  0  0
  4  8  2  0  0  0
  4  9  1  0  0  0
  5  7  2  0  0  0
  5 11  1  0  0  0
  6  8  1  0  0  0
  6 12  1  0  0  0
  7 13  1  0  0  0
  8 14  1  0  0  0
M  END
> <EXTREG>
4-cyanophenol

> <# Confs.>
1

> <LIC50>
0.516

> <Name>
4-cyanophenol

$$$$
  2-3-5-6-tetrafluorophenol
XX    ILIB04271811163D

 13 13  0  0  1  0              1 V2000
    0.8088    2.3623    0.0152 F   0  0  0  0  0
    0.8093   -2.3613    0.0078 F   0  0  0  0  0
   -1.9189    2.3623    0.0078 F   0  0  0  0  0
   -1.9185   -2.3623   -0.0152 F   0  0  0  0  0
    2.2041    0.0080    0.0080 O   0  0  0  0  0
    0.1450    1.2129    0.0080 C   0  0  0  0  0
    0.1450   -1.2114    0.0078 C   0  0  0  0  0
   -1.2549    1.2129    0.0078 C   0  0  0  0  0
   -1.2549   -1.2129   -0.0080 C   0  0  0  0  0
    0.8450    0.0080    0.0080 C   0  0  0  0  0
   -1.9546    0.0080   -0.0080 C   0  0  0  0  0
    2.5410    0.9824    0.0104 H   0  0  0  0  0
   -3.0381    0.0112   -0.0144 H   0  0  0  0  0
  1  6  1  0  0  0
  2  7  1  0  0  0
  3  8  1  0  0  0
  4  9  1  0  0  0
  5 10  1  0  0  0
  5 12  1  0  0  0
  6  8  1  0  0  0
  6 10  2  0  0  0
  7  9  2  0  0  0
  7 10  1  0  0  0
  8 11  2  0  0  0
  9 11  1  0  0  0
 11 13  1  0  0  0
M  END
> <EXTREG>
2-3-5-6-tetrafluorophenol

> <# Confs.>
1

> <LIC50>
1.167

> <Name>
2-3-5-6-tetrafluorophenol

$$$$
  pentafluorophenol
XX    ILIB04271811163D

 13 13  0  0  1  0              1 V2000
   -3.2822    0.0112   -0.0152 F   0  0  0  0  0
   -1.9189    2.3623    0.0078 F   0  0  0  0  0
   -1.9185   -2.3623   -0.0152 F   0  0  0  0  0
    0.8088    2.3623    0.0152 F   0  0  0  0  0
    0.8093   -2.3613    0.0078 F   0  0  0  0  0
    2.2041    0.0080    0.0080 O   0  0  0  0  0
   -1.9546    0.0080   -0.0080 C   0  0  0  0  0
   -1.2549    1.2129    0.0078 C   0  0  0  0  0
   -1.2549   -1.2129   -0.0080 C   0  0  0  0  0
    0.1450    1.2129    0.0080 C   0  0  0  0  0
    0.1450   -1.2114    0.0078 C   0  0  0  0  0
    0.8450    0.0080    0.0080 C   0  0  0  0  0
    2.5410    0.9824    0.0104 H   0  0  0  0  0
  1  7  1  0  0  0
  2  8  1  0  0  0
  3  9  1  0  0  0
  4 10  1  0  0  0
  5 11  1  0  0  0
  6 12  1  0  0  0
  6 13  1  0  0  0
  7  8  2  0  0  0
  7  9  1  0  0  0
  8 10  1  0  0  0
  9 11  2  0  0  0
 10 12  2  0  0  0
 11 12  1  0  0  0
M  END
> <EXTREG>
pentafluorophenol

> <# Confs.>
1

> <LIC50>
1.638

> <Name>
pentafluorophenol

$$$$
  ethyl-3-hydroxybenzoate
XX    ILIB04271811163D

 22 22  0  0  1  0              1 V2000
    2.2041    0.0080    0.0080 O   0  0  0  0  0
   -1.3818   -3.5381   -0.0080 O   0  0  0  0  0
   -3.4150   -2.4863   -0.0124 O   0  0  0  0  0
    0.8450    0.0080    0.0080 C   0  0  0  0  0
   -1.2549   -1.2129   -0.0080 C   0  0  0  0  0
    0.1450   -1.2114    0.0078 C   0  0  0  0  0
    0.1450    1.2129    0.0080 C   0  0  0  0  0
   -1.9546    0.0080   -0.0080 C   0  0  0  0  0
   -1.2549    1.2129    0.0078 C   0  0  0  0  0
   -1.9897   -2.4854   -0.0080 C   0  0  0  0  0
   -3.8906   -3.8301   -0.0080 C   0  0  0  0  0
   -5.4277   -3.8311   -0.0102 C   0  0  0  0  0
    2.5410    0.9824    0.0104 H   0  0  0  0  0
    0.6873   -2.1504    0.0078 H   0  0  0  0  0
    0.6868    2.1514    0.0144 H   0  0  0  0  0
   -3.0381    0.0112   -0.0144 H   0  0  0  0  0
   -1.7969    2.1514    0.0078 H   0  0  0  0  0
   -3.5264   -4.3438   -0.8945 H   0  0  0  0  0
   -3.5273   -4.3438    0.8867 H   0  0  0  0  0
   -5.7910   -3.3164    0.8855 H   0  0  0  0  0
   -5.7891   -3.3164   -0.8958 H   0  0  0  0  0
   -5.7910   -4.8594   -0.0114 H   0  0  0  0  0
  1  4  1  0  0  0
  1 13  1  0  0  0
  2 10  2  0  0  0
  3 10  1  0  0  0
  3 11  1  0  0  0
  4  6  1  0  0  0
  4  7  2  0  0  0
  5  6  2  0  0  0
  5  8  1  0  0  0
  5 10  1  0  0  0
  6 14  1  0  0  0
  7  9  1  0  0  0
  7 15  1  0  0  0
  8  9  2  0  0  0
  8 16  1  0  0  0
  9 17  1  0  0  0
 11 12  1  0  0  0
 11 18  1  0  0  0
 11 19  1  0  0  0
 12 20  1  0  0  0
 12 21  1  0  0  0
 12 22  1  0  0  0
M  END
> <EXTREG>
ethyl-3-hydroxybenzoate

> <# Confs.>
1

> <LIC50>
0.478

> <Name>
ethyl-3-hydroxybenzoate

$$$$
  4-tert-pentylphenol
XX    ILIB04271811163D

 28 28  0  0  1  0              1 V2000
    2.2041    0.0080    0.0080 O   0  0  0  0  0
    0.8450    0.0080    0.0080 C   0  0  0  0  0
   -1.9546    0.0080   -0.0080 C   0  0  0  0  0
    0.1450   -1.2114    0.0078 C   0  0  0  0  0
    0.1450    1.2129    0.0080 C   0  0  0  0  0
   -1.2549   -1.2129   -0.0080 C   0  0  0  0  0
   -1.2549    1.2129    0.0078 C   0  0  0  0  0
   -3.4600    0.0128   -0.0084 C   0  0  0  0  0
   -3.9736    1.4565   -0.0144 C   0  0  0  0  0
   -3.4600    2.1836    1.2598 C   0  0  0  0  0
   -3.4580    2.1846   -1.2622 C   0  0  0  0  0
   -5.5176    1.4570   -0.0116 C   0  0  0  0  0
    2.5410    0.9824    0.0104 H   0  0  0  0  0
    0.6873   -2.1504    0.0078 H   0  0  0  0  0
    0.6868    2.1514    0.0144 H   0  0  0  0  0
   -1.7964   -2.1514   -0.0144 H   0  0  0  0  0
   -1.7969    2.1514    0.0078 H   0  0  0  0  0
   -3.8223   -0.5129   -0.8931 H   0  0  0  0  0
   -3.8242   -0.5137    0.8882 H   0  0  0  0  0
   -3.8242    1.6694    2.1494 H   0  0  0  0  0
   -2.3691    2.1836    1.2603 H   0  0  0  0  0
   -3.8232    3.2129    1.2598 H   0  0  0  0  0
   -2.3672    2.1846   -1.2612 H   0  0  0  0  0
   -3.8213    1.6714   -2.1533 H   0  0  0  0  0
   -3.8213    3.2139   -1.2617 H   0  0  0  0  0
   -5.8809    0.9434   -0.8940 H   0  0  0  0  0
   -5.8828    0.9426    0.8872 H   0  0  0  0  0
   -5.8809    2.4854   -0.0112 H   0  0  0  0  0
  1  2  1  0  0  0
  1 13  1  0  0  0
  2  4  1  0  0  0
  2  5  2  0  0  0
  3  6  1  0  0  0
  3  7  2  0  0  0
  3  8  1  0  0  0
  4  6  2  0  0  0
  4 14  1  0  0  0
  5  7  1  0  0  0
  5 15  1  0  0  0
  6 16  1  0  0  0
  7 17  1  0  0  0
  8  9  1  0  0  0
  8 18  1  0  0  0
  8 19  1  0  0  0
  9 10  1  0  0  0
  9 11  1  0  0  0
  9 12  1  0  0  0
 10 20  1  0  0  0
 10 21  1  0  0  0
 10 22  1  0  0  0
 11 23  1  0  0  0
 11 24  1  0  0  0
 11 25  1  0  0  0
 12 26  1  0  0  0
 12 27  1  0  0  0
 12 28  1  0  0  0
M  END
> <EXTREG>
4-tert-pentylphenol

> <# Confs.>
1

> <LIC50>
1.229

> <Name>
4-tert-pentylphenol

$$$$
  2-6-dichlorophenol
XX    ILIB04271811163D

 13 13  0  0  1  0              1 V2000
    0.9954   -2.6836    0.0078 Cl  0  0  0  0  0
    0.9949    2.6846    0.0088 Cl  0  0  0  0  0
    2.2041    0.0080    0.0080 O   0  0  0  0  0
    0.1450   -1.2114    0.0078 C   0  0  0  0  0
    0.1450    1.2129    0.0080 C   0  0  0  0  0
    0.8450    0.0080    0.0080 C   0  0  0  0  0
   -1.2549   -1.2129   -0.0080 C   0  0  0  0  0
   -1.2549    1.2129    0.0078 C   0  0  0  0  0
   -1.9546    0.0080   -0.0080 C   0  0  0  0  0
    2.5410    0.9824    0.0104 H   0  0  0  0  0
   -1.7964   -2.1514   -0.0144 H   0  0  0  0  0
   -1.7969    2.1514    0.0078 H   0  0  0  0  0
   -3.0381    0.0112   -0.0144 H   0  0  0  0  0
  1  4  1  0  0  0
  2  5  1  0  0  0
  3  6  1  0  0  0
  3 10  1  0  0  0
  4  6  1  0  0  0
  4  7  2  0  0  0
  5  6  2  0  0  0
  5  8  1  0  0  0
  7  9  1  0  0  0
  7 11  1  0  0  0
  8  9  2  0  0  0
  8 12  1  0  0  0
  9 13  1  0  0  0
M  END
> <EXTREG>
2-6-dichlorophenol

> <# Confs.>
1

> <LIC50>
0.735

> <Name>
2-6-dichlorophenol

$$$$
  pentachlorophenol
XX    ILIB04271811163D

 13 13  0  0  1  0              1 V2000
   -3.6543    0.0128   -0.0088 Cl  0  0  0  0  0
   -2.1045    2.6846    0.0078 Cl  0  0  0  0  0
   -2.1045   -2.6846   -0.0088 Cl  0  0  0  0  0
    0.9949    2.6846    0.0088 Cl  0  0  0  0  0
    0.9954   -2.6836    0.0078 Cl  0  0  0  0  0
    2.2041    0.0080    0.0080 O   0  0  0  0  0
   -1.9546    0.0080   -0.0080 C   0  0  0  0  0
   -1.2549    1.2129    0.0078 C   0  0  0  0  0
   -1.2549   -1.2129   -0.0080 C   0  0  0  0  0
    0.1450    1.2129    0.0080 C   0  0  0  0  0
    0.1450   -1.2114    0.0078 C   0  0  0  0  0
    0.8450    0.0080    0.0080 C   0  0  0  0  0
    2.5410    0.9824    0.0104 H   0  0  0  0  0
  1  7  1  0  0  0
  2  8  1  0  0  0
  3  9  1  0  0  0
  4 10  1  0  0  0
  5 11  1  0  0  0
  6 12  1  0  0  0
  6 13  1  0  0  0
  7  8  2  0  0  0
  7  9  1  0  0  0
  8 10  1  0  0  0
  9 11  2  0  0  0
 10 12  2  0  0  0
 11 12  1  0  0  0
M  END
> <EXTREG>
pentachlorophenol

> <# Confs.>
1

> <LIC50>
2.049

> <Name>
pentachlorophenol

$$$$
  3-cyanophenol
XX    ILIB04271811163D

 14 14  0  0  1  0              1 V2000
    2.2041    0.0080    0.0080 O   0  0  0  0  0
   -2.5762   -3.5029   -0.0116 N   0  0  0  0  0
    0.8450    0.0080    0.0080 C   0  0  0  0  0
   -1.2549   -1.2129   -0.0080 C   0  0  0  0  0
    0.1450   -1.2114    0.0078 C   0  0  0  0  0
    0.1450    1.2129    0.0080 C   0  0  0  0  0
   -1.9546    0.0080   -0.0080 C   0  0  0  0  0
   -1.2549    1.2129    0.0078 C   0  0  0  0  0
   -2.0068   -2.5156   -0.0084 C   0  0  0  0  0
    2.5410    0.9824    0.0104 H   0  0  0  0  0
    0.6873   -2.1504    0.0078 H   0  0  0  0  0
    0.6868    2.1514    0.0144 H   0  0  0  0  0
   -3.0381    0.0112   -0.0144 H   0  0  0  0  0
   -1.7969    2.1514    0.0078 H   0  0  0  0  0
  1  3  1  0  0  0
  1 10  1  0  0  0
  2  9  3  0  0  0
  3  5  1  0  0  0
  3  6  2  0  0  0
  4  5  2  0  0  0
  4  7  1  0  0  0
  4  9  1  0  0  0
  5 11  1  0  0  0
  6  8  1  0  0  0
  6 12  1  0  0  0
  7  8  2  0  0  0
  7 13  1  0  0  0
  8 14  1  0  0  0
M  END
> <EXTREG>
3-cyanophenol

> <# Confs.>
1

> <LIC50>
-0.064

> <Name>
3-cyanophenol

$$$$
  4-chloro-3-5-dimethylphenol
XX    ILIB04271811163D

 19 19  0  0  1  0              1 V2000
   -3.6543    0.0128   -0.0088 Cl  0  0  0  0  0
    2.2041    0.0080    0.0080 O   0  0  0  0  0
   -1.9546    0.0080   -0.0080 C   0  0  0  0  0
    0.8450    0.0080    0.0080 C   0  0  0  0  0
   -1.2549   -1.2129   -0.0080 C   0  0  0  0  0
   -1.2549    1.2129    0.0078 C   0  0  0  0  0
    0.1450   -1.2114    0.0078 C   0  0  0  0  0
    0.1450    1.2129    0.0080 C   0  0  0  0  0
   -2.0068   -2.5156   -0.0084 C   0  0  0  0  0
   -2.0068    2.5156    0.0078 C   0  0  0  0  0
    2.5410    0.9824    0.0104 H   0  0  0  0  0
    0.6873   -2.1504    0.0078 H   0  0  0  0  0
    0.6868    2.1514    0.0144 H   0  0  0  0  0
   -1.7427   -3.0879   -0.8928 H   0  0  0  0  0
   -1.7441   -3.0879    0.8887 H   0  0  0  0  0
   -3.0791   -2.3164   -0.0112 H   0  0  0  0  0
   -2.6338    2.5742   -0.8911 H   0  0  0  0  0
   -2.6348    2.5732    0.8904 H   0  0  0  0  0
   -1.2983    3.3447    0.0128 H   0  0  0  0  0
  1  3  1  0  0  0
  2  4  1  0  0  0
  2 11  1  0  0  0
  3  5  1  0  0  0
  3  6  2  0  0  0
  4  7  1  0  0  0
  4  8  2  0  0  0
  5  7  2  0  0  0
  5  9  1  0  0  0
  6  8  1  0  0  0
  6 10  1  0  0  0
  7 12  1  0  0  0
  8 13  1  0  0  0
  9 14  1  0  0  0
  9 15  1  0  0  0
  9 16  1  0  0  0
 10 17  1  0  0  0
 10 18  1  0  0  0
 10 19  1  0  0  0
M  END
> <EXTREG>
4-chloro-3-5-dimethylphenol

> <# Confs.>
1

> <LIC50>
1.201

> <Name>
4-chloro-3-5-dimethylphenol

$$$$
  2-4-6-teichlorophenol
XX    ILIB04271811163D

 13 13  0  0  1  0              1 V2000
    0.9954   -2.6836    0.0078 Cl  0  0  0  0  0
    0.9949    2.6846    0.0088 Cl  0  0  0  0  0
   -3.6543    0.0128   -0.0088 Cl  0  0  0  0  0
    2.2041    0.0080    0.0080 O   0  0  0  0  0
    0.1450   -1.2114    0.0078 C   0  0  0  0  0
    0.1450    1.2129    0.0080 C   0  0  0  0  0
   -1.9546    0.0080   -0.0080 C   0  0  0  0  0
    0.8450    0.0080    0.0080 C   0  0  0  0  0
   -1.2549   -1.2129   -0.0080 C   0  0  0  0  0
   -1.2549    1.2129    0.0078 C   0  0  0  0  0
    2.5410    0.9824    0.0104 H   0  0  0  0  0
   -1.7964   -2.1514   -0.0144 H   0  0  0  0  0
   -1.7969    2.1514    0.0078 H   0  0  0  0  0
  1  5  1  0  0  0
  2  6  1  0  0  0
  3  7  1  0  0  0
  4  8  1  0  0  0
  4 11  1  0  0  0
  5  8  1  0  0  0
  5  9  2  0  0  0
  6  8  2  0  0  0
  6 10  1  0  0  0
  7  9  1  0  0  0
  7 10  2  0  0  0
  9 12  1  0  0  0
 10 13  1  0  0  0
M  END
> <EXTREG>
2-4-6-teichlorophenol

> <# Confs.>
1

> <LIC50>
1.41

> <Name>
2-4-6-teichlorophenol

$$$$
  2-tert-butylphenol
XX    ILIB04271811163D

 25 25  0  0  1  0              1 V2000
    2.2041    0.0080    0.0080 O   0  0  0  0  0
    0.8450    0.0080    0.0080 C   0  0  0  0  0
    0.1450   -1.2114    0.0078 C   0  0  0  0  0
    0.1450    1.2129    0.0080 C   0  0  0  0  0
   -1.2549   -1.2129   -0.0080 C   0  0  0  0  0
   -1.2549    1.2129    0.0078 C   0  0  0  0  0
   -1.9546    0.0080   -0.0080 C   0  0  0  0  0
    0.8979   -2.5146    0.0078 C   0  0  0  0  0
    0.5242   -3.3252    1.2603 C   0  0  0  0  0
    0.5259   -3.3242   -1.2612 C   0  0  0  0  0
    2.4160   -2.2314    0.0096 C   0  0  0  0  0
    2.5410    0.9824    0.0104 H   0  0  0  0  0
    0.6868    2.1514    0.0144 H   0  0  0  0  0
   -1.7964   -2.1514   -0.0144 H   0  0  0  0  0
   -1.7969    2.1514    0.0078 H   0  0  0  0  0
   -3.0381    0.0112   -0.0144 H   0  0  0  0  0
    0.7869   -2.7529    2.1514 H   0  0  0  0  0
   -0.5481   -3.5244    1.2593 H   0  0  0  0  0
    1.0698   -4.2695    1.2603 H   0  0  0  0  0
   -0.5464   -3.5234   -1.2622 H   0  0  0  0  0
    0.7898   -2.7520   -2.1514 H   0  0  0  0  0
    1.0718   -4.2676   -1.2612 H   0  0  0  0  0
    2.6797   -1.6597   -0.8892 H   0  0  0  0  0
    2.6787   -1.6602    0.8923 H   0  0  0  0  0
    2.9619   -3.1768    0.0096 H   0  0  0  0  0
  1  2  1  0  0  0
  1 12  1  0  0  0
  2  3  1  0  0  0
  2  4  2  0  0  0
  3  5  2  0  0  0
  3  8  1  0  0  0
  4  6  1  0  0  0
  4 13  1  0  0  0
  5  7  1  0  0  0
  5 14  1  0  0  0
  6  7  2  0  0  0
  6 15  1  0  0  0
  7 16  1  0  0  0
  8  9  1  0  0  0
  8 10  1  0  0  0
  8 11  1  0  0  0
  9 17  1  0  0  0
  9 18  1  0  0  0
  9 19  1  0  0  0
 10 20  1  0  0  0
 10 21  1  0  0  0
 10 22  1  0  0  0
 11 23  1  0  0  0
 11 24  1  0  0  0
 11 25  1  0  0  0
M  END
> <EXTREG>
2-tert-butylphenol

> <# Confs.>
1

> <LIC50>
1.295

> <Name>
2-tert-butylphenol

$$$$
  2-isopropylphenol
XX    ILIB04271811163D

 22 22  0  0  1  0              1 V2000
    2.2041    0.0080    0.0080 O   0  0  0  0  0
    0.8450    0.0080    0.0080 C   0  0  0  0  0
    0.1450   -1.2114    0.0078 C   0  0  0  0  0
    0.1450    1.2129    0.0080 C   0  0  0  0  0
   -1.2549   -1.2129   -0.0080 C   0  0  0  0  0
   -1.2549    1.2129    0.0078 C   0  0  0  0  0
   -1.9546    0.0080   -0.0080 C   0  0  0  0  0
    0.8979   -2.5146    0.0078 C   0  0  0  0  0
    0.5259   -3.3242   -1.2612 C   0  0  0  0  0
    2.4160   -2.2314    0.0096 C   0  0  0  0  0
    2.5410    0.9824    0.0104 H   0  0  0  0  0
    0.6868    2.1514    0.0144 H   0  0  0  0  0
   -1.7964   -2.1514   -0.0144 H   0  0  0  0  0
   -1.7969    2.1514    0.0078 H   0  0  0  0  0
   -3.0381    0.0112   -0.0144 H   0  0  0  0  0
    0.6338   -3.0869    0.8904 H   0  0  0  0  0
   -0.5464   -3.5234   -1.2622 H   0  0  0  0  0
    0.7898   -2.7520   -2.1514 H   0  0  0  0  0
    1.0718   -4.2676   -1.2612 H   0  0  0  0  0
    2.6797   -1.6597   -0.8892 H   0  0  0  0  0
    2.6787   -1.6602    0.8923 H   0  0  0  0  0
    2.9619   -3.1768    0.0096 H   0  0  0  0  0
  1  2  1  0  0  0
  1 11  1  0  0  0
  2  3  1  0  0  0
  2  4  2  0  0  0
  3  5  2  0  0  0
  3  8  1  0  0  0
  4  6  1  0  0  0
  4 12  1  0  0  0
  5  7  1  0  0  0
  5 13  1  0  0  0
  6  7  2  0  0  0
  6 14  1  0  0  0
  7 15  1  0  0  0
  8  9  1  0  0  0
  8 10  1  0  0  0
  8 16  1  0  0  0
  9 17  1  0  0  0
  9 18  1  0  0  0
  9 19  1  0  0  0
 10 20  1  0  0  0
 10 21  1  0  0  0
 10 22  1  0  0  0
M  END
> <EXTREG>
2-isopropylphenol

> <# Confs.>
1

> <LIC50>
0.798

> <Name>
2-isopropylphenol

$$$$
  4-chloro-2-isopropyl-5-methylphenol
XX    ILIB04271811163D

 25 25  0  0  1  0              1 V2000
   -3.6543    0.0128   -0.0088 Cl  0  0  0  0  0
    2.2041    0.0080    0.0080 O   0  0  0  0  0
   -1.9546    0.0080   -0.0080 C   0  0  0  0  0
    0.8450    0.0080    0.0080 C   0  0  0  0  0
   -1.2549    1.2129    0.0078 C   0  0  0  0  0
    0.1450   -1.2114    0.0078 C   0  0  0  0  0
   -1.2549   -1.2129   -0.0080 C   0  0  0  0  0
    0.1450    1.2129    0.0080 C   0  0  0  0  0
    0.8979   -2.5146    0.0078 C   0  0  0  0  0
   -2.0068    2.5156    0.0078 C   0  0  0  0  0
    0.5259   -3.3242   -1.2612 C   0  0  0  0  0
    2.4160   -2.2314    0.0096 C   0  0  0  0  0
    2.5410    0.9824    0.0104 H   0  0  0  0  0
   -1.7964   -2.1514   -0.0144 H   0  0  0  0  0
    0.6868    2.1514    0.0144 H   0  0  0  0  0
    0.6338   -3.0869    0.8904 H   0  0  0  0  0
   -2.6338    2.5742   -0.8911 H   0  0  0  0  0
   -2.6348    2.5732    0.8904 H   0  0  0  0  0
   -1.2983    3.3447    0.0128 H   0  0  0  0  0
   -0.5464   -3.5234   -1.2622 H   0  0  0  0  0
    0.7898   -2.7520   -2.1514 H   0  0  0  0  0
    1.0718   -4.2676   -1.2612 H   0  0  0  0  0
    2.6797   -1.6597   -0.8892 H   0  0  0  0  0
    2.6787   -1.6602    0.8923 H   0  0  0  0  0
    2.9619   -3.1768    0.0096 H   0  0  0  0  0
  1  3  1  0  0  0
  2  4  1  0  0  0
  2 13  1  0  0  0
  3  5  2  0  0  0
  3  7  1  0  0  0
  4  6  1  0  0  0
  4  8  2  0  0  0
  5  8  1  0  0  0
  5 10  1  0  0  0
  6  7  2  0  0  0
  6  9  1  0  0  0
  7 14  1  0  0  0
  8 15  1  0  0  0
  9 11  1  0  0  0
  9 12  1  0  0  0
  9 16  1  0  0  0
 10 17  1  0  0  0
 10 18  1  0  0  0
 10 19  1  0  0  0
 11 20  1  0  0  0
 11 21  1  0  0  0
 11 22  1  0  0  0
 12 23  1  0  0  0
 12 24  1  0  0  0
 12 25  1  0  0  0
M  END
> <EXTREG>
4-chloro-2-isopropyl-5-methylphenol

> <# Confs.>
1

> <LIC50>
1.854

> <Name>
4-chloro-2-isopropyl-5-methylphenol

$$$$
  2-ethylphenol
XX    ILIB04271811163D

 19 19  0  0  1  0              1 V2000
    2.2041    0.0080    0.0080 O   0  0  0  0  0
    0.8450    0.0080    0.0080 C   0  0  0  0  0
    0.1450   -1.2114    0.0078 C   0  0  0  0  0
    0.1450    1.2129    0.0080 C   0  0  0  0  0
   -1.2549   -1.2129   -0.0080 C   0  0  0  0  0
   -1.2549    1.2129    0.0078 C   0  0  0  0  0
   -1.9546    0.0080   -0.0080 C   0  0  0  0  0
    0.8979   -2.5146    0.0078 C   0  0  0  0  0
    2.4082   -2.2334    0.0096 C   0  0  0  0  0
    2.5410    0.9824    0.0104 H   0  0  0  0  0
    0.6868    2.1514    0.0144 H   0  0  0  0  0
   -1.7964   -2.1514   -0.0144 H   0  0  0  0  0
   -1.7969    2.1514    0.0078 H   0  0  0  0  0
   -3.0381    0.0112   -0.0144 H   0  0  0  0  0
    0.6338   -3.0869    0.8904 H   0  0  0  0  0
    0.6350   -3.0859   -0.8911 H   0  0  0  0  0
    2.6729   -1.6606   -0.8892 H   0  0  0  0  0
    2.6709   -1.6616    0.8923 H   0  0  0  0  0
    2.9541   -3.1777    0.0096 H   0  0  0  0  0
  1  2  1  0  0  0
  1 10  1  0  0  0
  2  3  1  0  0  0
  2  4  2  0  0  0
  3  5  2  0  0  0
  3  8  1  0  0  0
  4  6  1  0  0  0
  4 11  1  0  0  0
  5  7  1  0  0  0
  5 12  1  0  0  0
  6  7  2  0  0  0
  6 13  1  0  0  0
  7 14  1  0  0  0
  8  9  1  0  0  0
  8 15  1  0  0  0
  8 16  1  0  0  0
  9 17  1  0  0  0
  9 18  1  0  0  0
  9 19  1  0  0  0
M  END
> <EXTREG>
2-ethylphenol

> <# Confs.>
1

> <LIC50>
0.16

> <Name>
2-ethylphenol

$$$$
  2-hydroxy-benzyl_alcohol
XX    ILIB04271811163D

 17 17  0  0  1  0              1 V2000
   -1.5073   -1.8027   -0.0128 O   0  0  0  0  0
    2.7266   -1.6655    0.0120 O   0  0  0  0  0
   -0.8276   -0.6248   -0.0096 C   0  0  0  0  0
    0.5723   -0.6238    0.0128 C   0  0  0  0  0
   -1.5273    0.5884   -0.0096 C   0  0  0  0  0
    1.2720    0.5884    0.0112 C   0  0  0  0  0
   -0.8276    1.8008    0.0128 C   0  0  0  0  0
    0.5723    1.8008    0.0112 C   0  0  0  0  0
    1.3252   -1.9268    0.0128 C   0  0  0  0  0
   -2.5254   -1.6030   -0.0088 H   0  0  0  0  0
    3.2373   -2.5693    0.0120 H   0  0  0  0  0
   -2.6113    0.5886   -0.0112 H   0  0  0  0  0
    2.3555    0.5884    0.0088 H   0  0  0  0  0
   -1.3696    2.7393    0.0128 H   0  0  0  0  0
    1.1143    2.7393    0.0088 H   0  0  0  0  0
    1.0610   -2.4990    0.8906 H   0  0  0  0  0
    1.0625   -2.4980   -0.8906 H   0  0  0  0  0
  1  3  1  0  0  0
  1 10  1  0  0  0
  2  9  1  0  0  0
  2 11  1  0  0  0
  3  4  2  0  0  0
  3  5  1  0  0  0
  4  6  1  0  0  0
  4  9  1  0  0  0
  5  7  2  0  0  0
  5 12  1  0  0  0
  6  8  2  0  0  0
  6 13  1  0  0  0
  7  8  1  0  0  0
  7 14  1  0  0  0
  8 15  1  0  0  0
  9 16  1  0  0  0
  9 17  1  0  0  0
M  END
> <EXTREG>
2-hydroxy-benzyl_alcohol

> <# Confs.>
1

> <LIC50>
-0.954

> <Name>
2-hydroxy-benzyl_alcohol

$$$$
  2-hydroxybenzaldehyde
XX    ILIB04271811163D

 15 15  0  0  1  0              1 V2000
    2.2041    0.0080    0.0080 O   0  0  0  0  0
    2.0947   -2.4834    0.0144 O   0  0  0  0  0
    0.8450    0.0080    0.0080 C   0  0  0  0  0
    0.1450   -1.2114    0.0078 C   0  0  0  0  0
    0.1450    1.2129    0.0080 C   0  0  0  0  0
   -1.2549   -1.2129   -0.0080 C   0  0  0  0  0
   -1.2549    1.2129    0.0078 C   0  0  0  0  0
   -1.9546    0.0080   -0.0080 C   0  0  0  0  0
    0.8804   -2.4844    0.0078 C   0  0  0  0  0
    2.5410    0.9824    0.0104 H   0  0  0  0  0
    0.6868    2.1514    0.0144 H   0  0  0  0  0
   -1.7964   -2.1514   -0.0144 H   0  0  0  0  0
   -1.7969    2.1514    0.0078 H   0  0  0  0  0
   -3.0381    0.0112   -0.0144 H   0  0  0  0  0
    0.3352   -3.4297   -0.0128 H   0  0  0  0  0
  1  3  1  0  0  0
  1 10  1  0  0  0
  2  9  2  0  0  0
  3  4  1  0  0  0
  3  5  2  0  0  0
  4  6  2  0  0  0
  4  9  1  0  0  0
  5  7  1  0  0  0
  5 11  1  0  0  0
  6  8  1  0  0  0
  6 12  1  0  0  0
  7  8  2  0  0  0
  7 13  1  0  0  0
  8 14  1  0  0  0
  9 15  1  0  0  0
M  END
> <EXTREG>
2-hydroxybenzaldehyde

> <# Confs.>
1

> <LIC50>
0.424

> <Name>
2-hydroxybenzaldehyde

$$$$
  2-methoxyphenol
XX    ILIB04271811163D

 17 17  0  0  1  0              1 V2000
    0.8252   -2.3887    0.0078 O   0  0  0  0  0
    2.2041    0.0080    0.0080 O   0  0  0  0  0
    0.1450   -1.2114    0.0078 C   0  0  0  0  0
    0.8450    0.0080    0.0080 C   0  0  0  0  0
   -1.2549   -1.2129   -0.0080 C   0  0  0  0  0
    0.1450    1.2129    0.0080 C   0  0  0  0  0
   -1.9546    0.0080   -0.0080 C   0  0  0  0  0
   -1.2549    1.2129    0.0078 C   0  0  0  0  0
    2.2266   -2.1279    0.0088 C   0  0  0  0  0
    2.5410    0.9824    0.0104 H   0  0  0  0  0
   -1.7964   -2.1514   -0.0144 H   0  0  0  0  0
    0.6868    2.1514    0.0144 H   0  0  0  0  0
   -3.0381    0.0112   -0.0144 H   0  0  0  0  0
   -1.7969    2.1514    0.0078 H   0  0  0  0  0
    2.4912   -1.5557   -0.8892 H   0  0  0  0  0
    2.4893   -1.5562    0.8921 H   0  0  0  0  0
    2.7725   -3.0723    0.0088 H   0  0  0  0  0
  1  3  1  0  0  0
  1  9  1  0  0  0
  2  4  1  0  0  0
  2 10  1  0  0  0
  3  4  1  0  0  0
  3  5  2  0  0  0
  4  6  2  0  0  0
  5  7  1  0  0  0
  5 11  1  0  0  0
  6  8  1  0  0  0
  6 12  1  0  0  0
  7  8  2  0  0  0
  7 13  1  0  0  0
  8 14  1  0  0  0
  9 15  1  0  0  0
  9 16  1  0  0  0
  9 17  1  0  0  0
M  END
> <EXTREG>
2-methoxyphenol

> <# Confs.>
1

> <LIC50>
-0.51

> <Name>
2-methoxyphenol

$$$$
  3-5-dibromosalicylaldehyde
XX    ILIB04271811163D

 15 15  0  0  1  0              1 V2000
    1.0698    2.8145    0.0092 Br  0  0  0  0  0
   -3.8047    0.0128   -0.0092 Br  0  0  0  0  0
    2.2041    0.0080    0.0080 O   0  0  0  0  0
    2.0947   -2.4834    0.0144 O   0  0  0  0  0
    0.1450    1.2129    0.0080 C   0  0  0  0  0
   -1.9546    0.0080   -0.0080 C   0  0  0  0  0
    0.8450    0.0080    0.0080 C   0  0  0  0  0
    0.1450   -1.2114    0.0078 C   0  0  0  0  0
   -1.2549    1.2129    0.0078 C   0  0  0  0  0
   -1.2549   -1.2129   -0.0080 C   0  0  0  0  0
    0.8804   -2.4844    0.0078 C   0  0  0  0  0
    2.5410    0.9824    0.0104 H   0  0  0  0  0
   -1.7969    2.1514    0.0078 H   0  0  0  0  0
   -1.7964   -2.1514   -0.0144 H   0  0  0  0  0
    0.3352   -3.4297   -0.0128 H   0  0  0  0  0
  1  5  1  0  0  0
  2  6  1  0  0  0
  3  7  1  0  0  0
  3 12  1  0  0  0
  4 11  2  0  0  0
  5  7  2  0  0  0
  5  9  1  0  0  0
  6  9  2  0  0  0
  6 10  1  0  0  0
  7  8  1  0  0  0
  8 10  2  0  0  0
  8 11  1  0  0  0
  9 13  1  0  0  0
 10 14  1  0  0  0
 11 15  1  0  0  0
M  END
> <EXTREG>
3-5-dibromosalicylaldehyde

> <# Confs.>
1

> <LIC50>
1.638

> <Name>
3-5-dibromosalicylaldehyde

$$$$
  2-6-dimethoxyphenol
XX    ILIB04271811163D

 21 21  0  0  1  0              1 V2000
    0.8252   -2.3887    0.0078 O   0  0  0  0  0
    0.8250    2.3906    0.0080 O   0  0  0  0  0
    2.2041    0.0080    0.0080 O   0  0  0  0  0
    0.1450   -1.2114    0.0078 C   0  0  0  0  0
    0.1450    1.2129    0.0080 C   0  0  0  0  0
    0.8450    0.0080    0.0080 C   0  0  0  0  0
   -1.2549   -1.2129   -0.0080 C   0  0  0  0  0
   -1.2549    1.2129    0.0078 C   0  0  0  0  0
   -1.9546    0.0080   -0.0080 C   0  0  0  0  0
    2.2266   -2.1279    0.0088 C   0  0  0  0  0
   -0.1017    3.4736    0.0144 C   0  0  0  0  0
    2.5410    0.9824    0.0104 H   0  0  0  0  0
   -1.7964   -2.1514   -0.0144 H   0  0  0  0  0
   -1.7969    2.1514    0.0078 H   0  0  0  0  0
   -3.0381    0.0112   -0.0144 H   0  0  0  0  0
    2.4912   -1.5557   -0.8892 H   0  0  0  0  0
    2.4893   -1.5562    0.8921 H   0  0  0  0  0
    2.7725   -3.0723    0.0088 H   0  0  0  0  0
   -0.7283    3.4170   -0.8894 H   0  0  0  0  0
   -0.7295    3.4160    0.8921 H   0  0  0  0  0
    0.4437    4.4180    0.0100 H   0  0  0  0  0
  1  4  1  0  0  0
  1 10  1  0  0  0
  2  5  1  0  0  0
  2 11  1  0  0  0
  3  6  1  0  0  0
  3 12  1  0  0  0
  4  6  1  0  0  0
  4  7  2  0  0  0
  5  6  2  0  0  0
  5  8  1  0  0  0
  7  9  1  0  0  0
  7 13  1  0  0  0
  8  9  2  0  0  0
  8 14  1  0  0  0
  9 15  1  0  0  0
 10 16  1  0  0  0
 10 17  1  0  0  0
 10 18  1  0  0  0
 11 19  1  0  0  0
 11 20  1  0  0  0
 11 21  1  0  0  0
M  END
> <EXTREG>
2-6-dimethoxyphenol

> <# Confs.>
1

> <LIC50>
-0.598

> <Name>
2-6-dimethoxyphenol

$$$$
  2-3-5-trichlorphenol
XX    ILIB04271811163D

 13 13  0  0  1  0              1 V2000
    0.9954   -2.6836    0.0078 Cl  0  0  0  0  0
   -2.1045   -2.6846   -0.0088 Cl  0  0  0  0  0
   -2.1045    2.6846    0.0078 Cl  0  0  0  0  0
    2.2041    0.0080    0.0080 O   0  0  0  0  0
    0.1450   -1.2114    0.0078 C   0  0  0  0  0
   -1.2549   -1.2129   -0.0080 C   0  0  0  0  0
   -1.2549    1.2129    0.0078 C   0  0  0  0  0
    0.8450    0.0080    0.0080 C   0  0  0  0  0
   -1.9546    0.0080   -0.0080 C   0  0  0  0  0
    0.1450    1.2129    0.0080 C   0  0  0  0  0
    2.5410    0.9824    0.0104 H   0  0  0  0  0
   -3.0381    0.0112   -0.0144 H   0  0  0  0  0
    0.6868    2.1514    0.0144 H   0  0  0  0  0
  1  5  1  0  0  0
  2  6  1  0  0  0
  3  7  1  0  0  0
  4  8  1  0  0  0
  4 11  1  0  0  0
  5  6  2  0  0  0
  5  8  1  0  0  0
  6  9  1  0  0  0
  7  9  2  0  0  0
  7 10  1  0  0  0
  8 10  2  0  0  0
  9 12  1  0  0  0
 10 13  1  0  0  0
M  END
> <EXTREG>
2-3-5-trichlorphenol

> <# Confs.>
1

> <LIC50>
2.373

> <Name>
2-3-5-trichlorphenol

$$$$
  2-3-5-6-tetrachlorophenol
XX    ILIB04271811163D

 13 13  0  0  1  0              1 V2000
    0.9949    2.6846    0.0088 Cl  0  0  0  0  0
    0.9954   -2.6836    0.0078 Cl  0  0  0  0  0
   -2.1045    2.6846    0.0078 Cl  0  0  0  0  0
   -2.1045   -2.6846   -0.0088 Cl  0  0  0  0  0
    2.2041    0.0080    0.0080 O   0  0  0  0  0
    0.1450    1.2129    0.0080 C   0  0  0  0  0
    0.1450   -1.2114    0.0078 C   0  0  0  0  0
   -1.2549    1.2129    0.0078 C   0  0  0  0  0
   -1.2549   -1.2129   -0.0080 C   0  0  0  0  0
    0.8450    0.0080    0.0080 C   0  0  0  0  0
   -1.9546    0.0080   -0.0080 C   0  0  0  0  0
    2.5410    0.9824    0.0104 H   0  0  0  0  0
   -3.0381    0.0112   -0.0144 H   0  0  0  0  0
  1  6  1  0  0  0
  2  7  1  0  0  0
  3  8  1  0  0  0
  4  9  1  0  0  0
  5 10  1  0  0  0
  5 12  1  0  0  0
  6  8  1  0  0  0
  6 10  2  0  0  0
  7  9  2  0  0  0
  7 10  1  0  0  0
  8 11  2  0  0  0
  9 11  1  0  0  0
 11 13  1  0  0  0
M  END
> <EXTREG>
2-3-5-6-tetrachlorophenol

> <# Confs.>
1

> <LIC50>
2.222

> <Name>
2-3-5-6-tetrachlorophenol

$$$$
  2-ethoxyphenol
XX    ILIB04271811163D

 20 20  0  0  1  0              1 V2000
    0.8252   -2.3887    0.0078 O   0  0  0  0  0
    2.2041    0.0080    0.0080 O   0  0  0  0  0
    0.1450   -1.2114    0.0078 C   0  0  0  0  0
    0.8450    0.0080    0.0080 C   0  0  0  0  0
   -1.2549   -1.2129   -0.0080 C   0  0  0  0  0
    0.1450    1.2129    0.0080 C   0  0  0  0  0
   -1.9546    0.0080   -0.0080 C   0  0  0  0  0
   -1.2549    1.2129    0.0078 C   0  0  0  0  0
    2.2266   -2.1279    0.0088 C   0  0  0  0  0
    2.9961   -3.4590    0.0088 C   0  0  0  0  0
    2.5410    0.9824    0.0104 H   0  0  0  0  0
   -1.7964   -2.1514   -0.0144 H   0  0  0  0  0
    0.6868    2.1514    0.0144 H   0  0  0  0  0
   -3.0381    0.0112   -0.0144 H   0  0  0  0  0
   -1.7969    2.1514    0.0078 H   0  0  0  0  0
    2.4912   -1.5557   -0.8892 H   0  0  0  0  0
    2.4893   -1.5562    0.8921 H   0  0  0  0  0
    2.7314   -4.0312    0.8914 H   0  0  0  0  0
    2.7334   -4.0293   -0.8899 H   0  0  0  0  0
    4.0684   -3.2588    0.0080 H   0  0  0  0  0
  1  3  1  0  0  0
  1  9  1  0  0  0
  2  4  1  0  0  0
  2 11  1  0  0  0
  3  4  1  0  0  0
  3  5  2  0  0  0
  4  6  2  0  0  0
  5  7  1  0  0  0
  5 12  1  0  0  0
  6  8  1  0  0  0
  6 13  1  0  0  0
  7  8  2  0  0  0
  7 14  1  0  0  0
  8 15  1  0  0  0
  9 10  1  0  0  0
  9 16  1  0  0  0
  9 17  1  0  0  0
 10 18  1  0  0  0
 10 19  1  0  0  0
 10 20  1  0  0  0
M  END
> <EXTREG>
2-ethoxyphenol

> <# Confs.>
1

> <LIC50>
-0.358

> <Name>
2-ethoxyphenol

$$$$
  2-methylphenol
XX    ILIB04271811163D

 16 16  0  0  1  0              1 V2000
    2.2041    0.0080    0.0080 O   0  0  0  0  0
    0.8450    0.0080    0.0080 C   0  0  0  0  0
    0.1450   -1.2114    0.0078 C   0  0  0  0  0
    0.1450    1.2129    0.0080 C   0  0  0  0  0
   -1.2549   -1.2129   -0.0080 C   0  0  0  0  0
   -1.2549    1.2129    0.0078 C   0  0  0  0  0
   -1.9546    0.0080   -0.0080 C   0  0  0  0  0
    0.8979   -2.5146    0.0078 C   0  0  0  0  0
    2.5410    0.9824    0.0104 H   0  0  0  0  0
    0.6868    2.1514    0.0144 H   0  0  0  0  0
   -1.7964   -2.1514   -0.0144 H   0  0  0  0  0
   -1.7969    2.1514    0.0078 H   0  0  0  0  0
   -3.0381    0.0112   -0.0144 H   0  0  0  0  0
    0.6338   -3.0869    0.8904 H   0  0  0  0  0
    0.6350   -3.0859   -0.8911 H   0  0  0  0  0
    1.9702   -2.3145    0.0128 H   0  0  0  0  0
  1  2  1  0  0  0
  1  9  1  0  0  0
  2  3  1  0  0  0
  2  4  2  0  0  0
  3  5  2  0  0  0
  3  8  1  0  0  0
  4  6  1  0  0  0
  4 10  1  0  0  0
  5  7  1  0  0  0
  5 11  1  0  0  0
  6  7  2  0  0  0
  6 12  1  0  0  0
  7 13  1  0  0  0
  8 14  1  0  0  0
  8 15  1  0  0  0
  8 16  1  0  0  0
M  END
> <EXTREG>
2-methylphenol

> <# Confs.>
1

> <LIC50>
-0.295

> <Name>
2-methylphenol

$$$$
  2-bromophenol
XX    ILIB04271811163D

 13 13  0  0  1  0              1 V2000
    1.0703   -2.8135    0.0078 Br  0  0  0  0  0
    2.2041    0.0080    0.0080 O   0  0  0  0  0
    0.1450   -1.2114    0.0078 C   0  0  0  0  0
    0.8450    0.0080    0.0080 C   0  0  0  0  0
   -1.2549   -1.2129   -0.0080 C   0  0  0  0  0
    0.1450    1.2129    0.0080 C   0  0  0  0  0
   -1.9546    0.0080   -0.0080 C   0  0  0  0  0
   -1.2549    1.2129    0.0078 C   0  0  0  0  0
    2.5410    0.9824    0.0104 H   0  0  0  0  0
   -1.7964   -2.1514   -0.0144 H   0  0  0  0  0
    0.6868    2.1514    0.0144 H   0  0  0  0  0
   -3.0381    0.0112   -0.0144 H   0  0  0  0  0
   -1.7969    2.1514    0.0078 H   0  0  0  0  0
  1  3  1  0  0  0
  2  4  1  0  0  0
  2  9  1  0  0  0
  3  4  1  0  0  0
  3  5  2  0  0  0
  4  6  2  0  0  0
  5  7  1  0  0  0
  5 10  1  0  0  0
  6  8  1  0  0  0
  6 11  1  0  0  0
  7  8  2  0  0  0
  7 12  1  0  0  0
  8 13  1  0  0  0
M  END
> <EXTREG>
2-bromophenol

> <# Confs.>
1

> <LIC50>
0.33

> <Name>
2-bromophenol

$$$$
  2-chlorophenol
XX    ILIB04271811163D

 13 13  0  0  1  0              1 V2000
    0.9954   -2.6836    0.0078 Cl  0  0  0  0  0
    2.2041    0.0080    0.0080 O   0  0  0  0  0
    0.1450   -1.2114    0.0078 C   0  0  0  0  0
    0.8450    0.0080    0.0080 C   0  0  0  0  0
   -1.2549   -1.2129   -0.0080 C   0  0  0  0  0
    0.1450    1.2129    0.0080 C   0  0  0  0  0
   -1.9546    0.0080   -0.0080 C   0  0  0  0  0
   -1.2549    1.2129    0.0078 C   0  0  0  0  0
    2.5410    0.9824    0.0104 H   0  0  0  0  0
   -1.7964   -2.1514   -0.0144 H   0  0  0  0  0
    0.6868    2.1514    0.0144 H   0  0  0  0  0
   -3.0381    0.0112   -0.0144 H   0  0  0  0  0
   -1.7969    2.1514    0.0078 H   0  0  0  0  0
  1  3  1  0  0  0
  2  4  1  0  0  0
  2  9  1  0  0  0
  3  4  1  0  0  0
  3  5  2  0  0  0
  4  6  2  0  0  0
  5  7  1  0  0  0
  5 10  1  0  0  0
  6  8  1  0  0  0
  6 11  1  0  0  0
  7  8  2  0  0  0
  7 12  1  0  0  0
  8 13  1  0  0  0
M  END
> <EXTREG>
2-chlorophenol

> <# Confs.>
1

> <LIC50>
0.183

> <Name>
2-chlorophenol

$$$$
  3-4-dimethylphenol
XX    ILIB04271811163D

 19 19  0  0  1  0              1 V2000
    2.2041    0.0080    0.0080 O   0  0  0  0  0
    0.8450    0.0080    0.0080 C   0  0  0  0  0
   -1.2549   -1.2129   -0.0080 C   0  0  0  0  0
   -1.9546    0.0080   -0.0080 C   0  0  0  0  0
    0.1450   -1.2114    0.0078 C   0  0  0  0  0
    0.1450    1.2129    0.0080 C   0  0  0  0  0
   -1.2549    1.2129    0.0078 C   0  0  0  0  0
   -2.0068   -2.5156   -0.0084 C   0  0  0  0  0
   -3.4600    0.0128   -0.0084 C   0  0  0  0  0
    2.5410    0.9824    0.0104 H   0  0  0  0  0
    0.6873   -2.1504    0.0078 H   0  0  0  0  0
    0.6868    2.1514    0.0144 H   0  0  0  0  0
   -1.7969    2.1514    0.0078 H   0  0  0  0  0
   -1.7427   -3.0879   -0.8928 H   0  0  0  0  0
   -1.7441   -3.0879    0.8887 H   0  0  0  0  0
   -3.0791   -2.3164   -0.0112 H   0  0  0  0  0
   -3.8223   -0.5129   -0.8931 H   0  0  0  0  0
   -3.8242   -0.5137    0.8882 H   0  0  0  0  0
   -3.8232    1.0293   -0.0152 H   0  0  0  0  0
  1  2  1  0  0  0
  1 10  1  0  0  0
  2  5  1  0  0  0
  2  6  2  0  0  0
  3  4  1  0  0  0
  3  5  2  0  0  0
  3  8  1  0  0  0
  4  7  2  0  0  0
  4  9  1  0  0  0
  5 11  1  0  0  0
  6  7  1  0  0  0
  6 12  1  0  0  0
  7 13  1  0  0  0
  8 14  1  0  0  0
  8 15  1  0  0  0
  8 16  1  0  0  0
  9 17  1  0  0  0
  9 18  1  0  0  0
  9 19  1  0  0  0
M  END
> <EXTREG>
3-4-dimethylphenol

> <# Confs.>
1

> <LIC50>
0.122

> <Name>
3-4-dimethylphenol

$$$$
  3-4-dichlorophenol
XX    ILIB04271811163D

 13 13  0  0  1  0              1 V2000
   -2.1045   -2.6846   -0.0088 Cl  0  0  0  0  0
   -3.6543    0.0128   -0.0088 Cl  0  0  0  0  0
    2.2041    0.0080    0.0080 O   0  0  0  0  0
   -1.2549   -1.2129   -0.0080 C   0  0  0  0  0
   -1.9546    0.0080   -0.0080 C   0  0  0  0  0
    0.8450    0.0080    0.0080 C   0  0  0  0  0
    0.1450   -1.2114    0.0078 C   0  0  0  0  0
   -1.2549    1.2129    0.0078 C   0  0  0  0  0
    0.1450    1.2129    0.0080 C   0  0  0  0  0
    2.5410    0.9824    0.0104 H   0  0  0  0  0
    0.6873   -2.1504    0.0078 H   0  0  0  0  0
   -1.7969    2.1514    0.0078 H   0  0  0  0  0
    0.6868    2.1514    0.0144 H   0  0  0  0  0
  1  4  1  0  0  0
  2  5  1  0  0  0
  3  6  1  0  0  0
  3 10  1  0  0  0
  4  5  1  0  0  0
  4  7  2  0  0  0
  5  8  2  0  0  0
  6  7  1  0  0  0
  6  9  2  0  0  0
  7 11  1  0  0  0
  8  9  1  0  0  0
  8 12  1  0  0  0
  9 13  1  0  0  0
M  END
> <EXTREG>
3-4-dichlorophenol

> <# Confs.>
1

> <LIC50>
1.745

> <Name>
3-4-dichlorophenol

$$$$
  2-5-dimethylphenol
XX    ILIB04271811163D

 19 19  0  0  1  0              1 V2000
    2.2041    0.0080    0.0080 O   0  0  0  0  0
    0.8450    0.0080    0.0080 C   0  0  0  0  0
    0.1450   -1.2114    0.0078 C   0  0  0  0  0
   -1.2549    1.2129    0.0078 C   0  0  0  0  0
    0.1450    1.2129    0.0080 C   0  0  0  0  0
   -1.2549   -1.2129   -0.0080 C   0  0  0  0  0
   -1.9546    0.0080   -0.0080 C   0  0  0  0  0
    0.8979   -2.5146    0.0078 C   0  0  0  0  0
   -2.0068    2.5156    0.0078 C   0  0  0  0  0
    2.5410    0.9824    0.0104 H   0  0  0  0  0
    0.6868    2.1514    0.0144 H   0  0  0  0  0
   -1.7964   -2.1514   -0.0144 H   0  0  0  0  0
   -3.0381    0.0112   -0.0144 H   0  0  0  0  0
    0.6338   -3.0869    0.8904 H   0  0  0  0  0
    0.6350   -3.0859   -0.8911 H   0  0  0  0  0
    1.9702   -2.3145    0.0128 H   0  0  0  0  0
   -2.6338    2.5742   -0.8911 H   0  0  0  0  0
   -2.6348    2.5732    0.8904 H   0  0  0  0  0
   -1.2983    3.3447    0.0128 H   0  0  0  0  0
  1  2  1  0  0  0
  1 10  1  0  0  0
  2  3  1  0  0  0
  2  5  2  0  0  0
  3  6  2  0  0  0
  3  8  1  0  0  0
  4  5  1  0  0  0
  4  7  2  0  0  0
  4  9  1  0  0  0
  5 11  1  0  0  0
  6  7  1  0  0  0
  6 12  1  0  0  0
  7 13  1  0  0  0
  8 14  1  0  0  0
  8 15  1  0  0  0
  8 16  1  0  0  0
  9 17  1  0  0  0
  9 18  1  0  0  0
  9 19  1  0  0  0
M  END
> <EXTREG>
2-5-dimethylphenol

> <# Confs.>
1

> <LIC50>
0.081

> <Name>
2-5-dimethylphenol

$$$$
  2-4-5-trichlorophenol
XX    ILIB04271811163D

 13 13  0  0  1  0              1 V2000
    0.9954   -2.6836    0.0078 Cl  0  0  0  0  0
   -2.1045   -2.6846   -0.0088 Cl  0  0  0  0  0
   -2.1045    2.6846    0.0078 Cl  0  0  0  0  0
    2.2041    0.0080    0.0080 O   0  0  0  0  0
    0.1450   -1.2114    0.0078 C   0  0  0  0  0
   -1.2549   -1.2129   -0.0080 C   0  0  0  0  0
   -1.2549    1.2129    0.0078 C   0  0  0  0  0
    0.8450    0.0080    0.0080 C   0  0  0  0  0
   -1.9546    0.0080   -0.0080 C   0  0  0  0  0
    0.1450    1.2129    0.0080 C   0  0  0  0  0
    2.5410    0.9824    0.0104 H   0  0  0  0  0
   -3.0381    0.0112   -0.0144 H   0  0  0  0  0
    0.6868    2.1514    0.0144 H   0  0  0  0  0
  1  5  1  0  0  0
  2  6  1  0  0  0
  3  7  1  0  0  0
  4  8  1  0  0  0
  4 11  1  0  0  0
  5  6  2  0  0  0
  5  8  1  0  0  0
  6  9  1  0  0  0
  7  9  2  0  0  0
  7 10  1  0  0  0
  8 10  2  0  0  0
  9 12  1  0  0  0
 10 13  1  0  0  0
M  END
> <EXTREG>
2-4-5-trichlorophenol

> <# Confs.>
1

> <LIC50>
2.097

> <Name>
2-4-5-trichlorophenol

$$$$
  4-tert-butylphenol
XX    ILIB04271811163D

 25 25  0  0  1  0              1 V2000
    2.2041    0.0080    0.0080 O   0  0  0  0  0
    0.8450    0.0080    0.0080 C   0  0  0  0  0
   -1.9546    0.0080   -0.0080 C   0  0  0  0  0
    0.1450   -1.2114    0.0078 C   0  0  0  0  0
    0.1450    1.2129    0.0080 C   0  0  0  0  0
   -1.2549   -1.2129   -0.0080 C   0  0  0  0  0
   -1.2549    1.2129    0.0078 C   0  0  0  0  0
   -3.4600    0.0128   -0.0084 C   0  0  0  0  0
   -3.9736   -0.7266   -1.2637 C   0  0  0  0  0
   -3.9756   -0.7275    1.2578 C   0  0  0  0  0
   -3.9736    1.4565   -0.0144 C   0  0  0  0  0
    2.5410    0.9824    0.0104 H   0  0  0  0  0
    0.6873   -2.1504    0.0078 H   0  0  0  0  0
    0.6868    2.1514    0.0144 H   0  0  0  0  0
   -1.7964   -2.1514   -0.0144 H   0  0  0  0  0
   -1.7969    2.1514    0.0078 H   0  0  0  0  0
   -3.6094   -0.2121   -2.1533 H   0  0  0  0  0
   -3.6104   -1.7554   -1.2637 H   0  0  0  0  0
   -5.0645   -0.7263   -1.2642 H   0  0  0  0  0
   -3.6123   -1.7563    1.2578 H   0  0  0  0  0
   -3.6123   -0.2139    2.1494 H   0  0  0  0  0
   -5.0664   -0.7273    1.2573 H   0  0  0  0  0
   -3.6113    1.9707    0.8892 H   0  0  0  0  0
   -3.6094    1.9712   -0.8921 H   0  0  0  0  0
   -5.0645    1.4570   -0.0104 H   0  0  0  0  0
  1  2  1  0  0  0
  1 12  1  0  0  0
  2  4  1  0  0  0
  2  5  2  0  0  0
  3  6  1  0  0  0
  3  7  2  0  0  0
  3  8  1  0  0  0
  4  6  2  0  0  0
  4 13  1  0  0  0
  5  7  1  0  0  0
  5 14  1  0  0  0
  6 15  1  0  0  0
  7 16  1  0  0  0
  8  9  1  0  0  0
  8 10  1  0  0  0
  8 11  1  0  0  0
  9 17  1  0  0  0
  9 18  1  0  0  0
  9 19  1  0  0  0
 10 20  1  0  0  0
 10 21  1  0  0  0
 10 22  1  0  0  0
 11 23  1  0  0  0
 11 24  1  0  0  0
 11 25  1  0  0  0
M  END
> <EXTREG>
4-tert-butylphenol

> <# Confs.>
1

> <LIC50>
0.914

> <Name>
4-tert-butylphenol

$$$$
  4-sec-butylphenol
XX    ILIB04271811163D

 25 25  0  0  1  0              1 V2000
    2.2041    0.0080    0.0080 O   0  0  0  0  0
    0.8450    0.0080    0.0080 C   0  0  0  0  0
   -1.9546    0.0080   -0.0080 C   0  0  0  0  0
    0.1450   -1.2114    0.0078 C   0  0  0  0  0
    0.1450    1.2129    0.0080 C   0  0  0  0  0
   -1.2549   -1.2129   -0.0080 C   0  0  0  0  0
   -1.2549    1.2129    0.0078 C   0  0  0  0  0
   -3.4600    0.0128   -0.0084 C   0  0  0  0  0
   -3.9736    1.4565   -0.0144 C   0  0  0  0  0
   -3.4580    2.1846   -1.2622 C   0  0  0  0  0
   -5.5176    1.4570   -0.0116 C   0  0  0  0  0
    2.5410    0.9824    0.0104 H   0  0  0  0  0
    0.6873   -2.1504    0.0078 H   0  0  0  0  0
    0.6868    2.1514    0.0144 H   0  0  0  0  0
   -1.7964   -2.1514   -0.0144 H   0  0  0  0  0
   -1.7969    2.1514    0.0078 H   0  0  0  0  0
   -3.8223   -0.5129   -0.8931 H   0  0  0  0  0
   -3.8242   -0.5137    0.8882 H   0  0  0  0  0
   -3.6113    1.9707    0.8892 H   0  0  0  0  0
   -2.3672    2.1846   -1.2612 H   0  0  0  0  0
   -3.8213    1.6714   -2.1533 H   0  0  0  0  0
   -3.8213    3.2139   -1.2617 H   0  0  0  0  0
   -5.8809    0.9434   -0.8940 H   0  0  0  0  0
   -5.8828    0.9426    0.8872 H   0  0  0  0  0
   -5.8809    2.4854   -0.0112 H   0  0  0  0  0
  1  2  1  0  0  0
  1 12  1  0  0  0
  2  4  1  0  0  0
  2  5  2  0  0  0
  3  6  1  0  0  0
  3  7  2  0  0  0
  3  8  1  0  0  0
  4  6  2  0  0  0
  4 13  1  0  0  0
  5  7  1  0  0  0
  5 14  1  0  0  0
  6 15  1  0  0  0
  7 16  1  0  0  0
  8  9  1  0  0  0
  8 17  1  0  0  0
  8 18  1  0  0  0
  9 10  1  0  0  0
  9 11  1  0  0  0
  9 19  1  0  0  0
 10 20  1  0  0  0
 10 21  1  0  0  0
 10 22  1  0  0  0
 11 23  1  0  0  0
 11 24  1  0  0  0
 11 25  1  0  0  0
M  END
> <EXTREG>
4-sec-butylphenol

> <# Confs.>
1

> <LIC50>
0.979

> <Name>
4-sec-butylphenol

$$$$
  methyl-4-hydroxybenzoate
XX    ILIB04271811163D

 19 19  0  0  1  0              1 V2000
    2.2041    0.0080    0.0080 O   0  0  0  0  0
   -4.0312   -1.0513   -0.0116 O   0  0  0  0  0
   -4.1367    1.2354   -0.0084 O   0  0  0  0  0
    0.8450    0.0080    0.0080 C   0  0  0  0  0
   -1.9546    0.0080   -0.0080 C   0  0  0  0  0
    0.1450   -1.2114    0.0078 C   0  0  0  0  0
    0.1450    1.2129    0.0080 C   0  0  0  0  0
   -1.2549   -1.2129   -0.0080 C   0  0  0  0  0
   -1.2549    1.2129    0.0078 C   0  0  0  0  0
   -3.4248    0.0128   -0.0084 C   0  0  0  0  0
   -5.5391    0.9753   -0.0128 C   0  0  0  0  0
    2.5410    0.9824    0.0104 H   0  0  0  0  0
    0.6873   -2.1504    0.0078 H   0  0  0  0  0
    0.6868    2.1514    0.0144 H   0  0  0  0  0
   -1.7964   -2.1514   -0.0144 H   0  0  0  0  0
   -1.7969    2.1514    0.0078 H   0  0  0  0  0
   -5.8027    0.4037   -0.8943 H   0  0  0  0  0
   -5.8027    0.4031    0.8870 H   0  0  0  0  0
   -6.0840    1.9204   -0.0128 H   0  0  0  0  0
  1  4  1  0  0  0
  1 12  1  0  0  0
  2 10  2  0  0  0
  3 10  1  0  0  0
  3 11  1  0  0  0
  4  6  1  0  0  0
  4  7  2  0  0  0
  5  8  1  0  0  0
  5  9  2  0  0  0
  5 10  1  0  0  0
  6  8  2  0  0  0
  6 13  1  0  0  0
  7  9  1  0  0  0
  7 14  1  0  0  0
  8 15  1  0  0  0
  9 16  1  0  0  0
 11 17  1  0  0  0
 11 18  1  0  0  0
 11 19  1  0  0  0
M  END
> <EXTREG>
methyl-4-hydroxybenzoate

> <# Confs.>
1

> <LIC50>
0.084

> <Name>
methyl-4-hydroxybenzoate

$$$$
  4-isopropylphenol
XX    ILIB04271811163D

 22 22  0  0  1  0              1 V2000
    2.2041    0.0080    0.0080 O   0  0  0  0  0
    0.8450    0.0080    0.0080 C   0  0  0  0  0
   -1.9546    0.0080   -0.0080 C   0  0  0  0  0
    0.1450   -1.2114    0.0078 C   0  0  0  0  0
    0.1450    1.2129    0.0080 C   0  0  0  0  0
   -1.2549   -1.2129   -0.0080 C   0  0  0  0  0
   -1.2549    1.2129    0.0078 C   0  0  0  0  0
   -3.4600    0.0128   -0.0084 C   0  0  0  0  0
   -3.9756   -0.7275    1.2578 C   0  0  0  0  0
   -3.9736    1.4565   -0.0144 C   0  0  0  0  0
    2.5410    0.9824    0.0104 H   0  0  0  0  0
    0.6873   -2.1504    0.0078 H   0  0  0  0  0
    0.6868    2.1514    0.0144 H   0  0  0  0  0
   -1.7964   -2.1514   -0.0144 H   0  0  0  0  0
   -1.7969    2.1514    0.0078 H   0  0  0  0  0
   -3.8223   -0.5129   -0.8931 H   0  0  0  0  0
   -3.6123   -1.7563    1.2578 H   0  0  0  0  0
   -3.6123   -0.2139    2.1494 H   0  0  0  0  0
   -5.0664   -0.7273    1.2573 H   0  0  0  0  0
   -3.6113    1.9707    0.8892 H   0  0  0  0  0
   -3.6094    1.9712   -0.8921 H   0  0  0  0  0
   -5.0645    1.4570   -0.0104 H   0  0  0  0  0
  1  2  1  0  0  0
  1 11  1  0  0  0
  2  4  1  0  0  0
  2  5  2  0  0  0
  3  6  1  0  0  0
  3  7  2  0  0  0
  3  8  1  0  0  0
  4  6  2  0  0  0
  4 12  1  0  0  0
  5  7  1  0  0  0
  5 13  1  0  0  0
  6 14  1  0  0  0
  7 15  1  0  0  0
  8  9  1  0  0  0
  8 10  1  0  0  0
  8 16  1  0  0  0
  9 17  1  0  0  0
  9 18  1  0  0  0
  9 19  1  0  0  0
 10 20  1  0  0  0
 10 21  1  0  0  0
 10 22  1  0  0  0
M  END
> <EXTREG>
4-isopropylphenol

> <# Confs.>
1

> <LIC50>
0.473

> <Name>
4-isopropylphenol

$$$$
  4-hydroxyacetophenone
XX    ILIB04271811163D

 17 17  0  0  1  0              1 V2000
   -3.3145    0.0112   -0.0080 O   0  0  0  0  0
    2.2041    0.0080    0.0080 O   0  0  0  0  0
   -1.9546    0.0080   -0.0080 C   0  0  0  0  0
    0.8450    0.0080    0.0080 C   0  0  0  0  0
   -1.2549   -1.2129   -0.0080 C   0  0  0  0  0
   -1.2549    1.2129    0.0078 C   0  0  0  0  0
    0.1450   -1.2114    0.0078 C   0  0  0  0  0
    0.1450    1.2129    0.0080 C   0  0  0  0  0
   -3.7900    1.3452   -0.0144 C   0  0  0  0  0
    2.5410    0.9824    0.0104 H   0  0  0  0  0
   -1.7964   -2.1514   -0.0144 H   0  0  0  0  0
   -1.7969    2.1514    0.0078 H   0  0  0  0  0
    0.6873   -2.1504    0.0078 H   0  0  0  0  0
    0.6868    2.1514    0.0144 H   0  0  0  0  0
   -3.4268    1.8589    0.8894 H   0  0  0  0  0
   -3.4248    1.8599   -0.8921 H   0  0  0  0  0
   -4.8809    1.3452   -0.0100 H   0  0  0  0  0
  1  3  1  0  0  0
  1  9  1  0  0  0
  2  4  1  0  0  0
  2 10  1  0  0  0
  3  5  1  0  0  0
  3  6  2  0  0  0
  4  7  1  0  0  0
  4  8  2  0  0  0
  5  7  2  0  0  0
  5 11  1  0  0  0
  6  8  1  0  0  0
  6 12  1  0  0  0
  7 13  1  0  0  0
  8 14  1  0  0  0
  9 15  1  0  0  0
  9 16  1  0  0  0
  9 17  1  0  0  0
M  END
> <EXTREG>
4-hydroxyacetophenone

> <# Confs.>
1

> <LIC50>
-0.302

> <Name>
4-hydroxyacetophenone

$$$$
  4-amino-2-nitrophenol
XX    ILIB04271811163D

 17 17  0  0  1  0              1 V2000
    0.2023   -3.4219   -0.0144 O   0  0  0  0  0
    2.0312   -2.3652    0.0144 O   0  0  0  0  0
    2.2041    0.0080    0.0080 O   0  0  0  0  0
    0.8118   -2.3652    0.0078 N   0  2  0  0  0
   -3.2871    0.0112   -0.0080 N   0  0  0  0  0
    0.8450    0.0080    0.0080 C   0  0  0  0  0
    0.1450   -1.2114    0.0078 C   0  0  0  0  0
   -1.9546    0.0080   -0.0080 C   0  0  0  0  0
    0.1450    1.2129    0.0080 C   0  0  0  0  0
   -1.2549   -1.2129   -0.0080 C   0  0  0  0  0
   -1.2549    1.2129    0.0078 C   0  0  0  0  0
    2.5410    0.9824    0.0104 H   0  0  0  0  0
   -3.7920   -0.8721   -0.0108 H   0  0  0  0  0
   -3.7910    0.8738   -0.0080 H   0  0  0  0  0
    0.6868    2.1514    0.0144 H   0  0  0  0  0
   -1.7964   -2.1514   -0.0144 H   0  0  0  0  0
   -1.7969    2.1514    0.0078 H   0  0  0  0  0
  1  4  2  0  0  0
  2  4  2  0  0  0
  3  6  1  0  0  0
  3 12  1  0  0  0
  4  7  1  0  0  0
  5  8  1  0  0  0
  5 13  1  0  0  0
  5 14  1  0  0  0
  6  7  1  0  0  0
  6  9  2  0  0  0
  7 10  2  0  0  0
  8 10  1  0  0  0
  8 11  2  0  0  0
  9 11  1  0  0  0
  9 15  1  0  0  0
 10 16  1  0  0  0
 11 17  1  0  0  0
M  END
> <EXTREG>
4-amino-2-nitrophenol

> <# Confs.>
1

> <LIC50>
0.879

> <Name>
4-amino-2-nitrophenol

$$$$
  2-amino-4-tert-butyphenol
XX    ILIB04271811163D

 27 27  0  0  1  0              1 V2000
    2.2041    0.0080    0.0080 O   0  0  0  0  0
    0.8118   -2.3652    0.0078 N   0  0  0  0  0
    0.8450    0.0080    0.0080 C   0  0  0  0  0
    0.1450   -1.2114    0.0078 C   0  0  0  0  0
   -1.9546    0.0080   -0.0080 C   0  0  0  0  0
    0.1450    1.2129    0.0080 C   0  0  0  0  0
   -1.2549   -1.2129   -0.0080 C   0  0  0  0  0
   -1.2549    1.2129    0.0078 C   0  0  0  0  0
   -3.4600    0.0128   -0.0084 C   0  0  0  0  0
   -3.9736   -0.7266   -1.2637 C   0  0  0  0  0
   -3.9756   -0.7275    1.2578 C   0  0  0  0  0
   -3.9736    1.4565   -0.0144 C   0  0  0  0  0
    2.5410    0.9824    0.0104 H   0  0  0  0  0
    0.3081   -3.2383   -0.0112 H   0  0  0  0  0
    1.8198   -2.3652    0.0112 H   0  0  0  0  0
    0.6868    2.1514    0.0144 H   0  0  0  0  0
   -1.7964   -2.1514   -0.0144 H   0  0  0  0  0
   -1.7969    2.1514    0.0078 H   0  0  0  0  0
   -3.6094   -0.2121   -2.1533 H   0  0  0  0  0
   -3.6104   -1.7554   -1.2637 H   0  0  0  0  0
   -5.0645   -0.7263   -1.2642 H   0  0  0  0  0
   -3.6123   -1.7563    1.2578 H   0  0  0  0  0
   -3.6123   -0.2139    2.1494 H   0  0  0  0  0
   -5.0664   -0.7273    1.2573 H   0  0  0  0  0
   -3.6113    1.9707    0.8892 H   0  0  0  0  0
   -3.6094    1.9712   -0.8921 H   0  0  0  0  0
   -5.0645    1.4570   -0.0104 H   0  0  0  0  0
  1  3  1  0  0  0
  1 13  1  0  0  0
  2  4  1  0  0  0
  2 14  1  0  0  0
  2 15  1  0  0  0
  3  4  1  0  0  0
  3  6  2  0  0  0
  4  7  2  0  0  0
  5  7  1  0  0  0
  5  8  2  0  0  0
  5  9  1  0  0  0
  6  8  1  0  0  0
  6 16  1  0  0  0
  7 17  1  0  0  0
  8 18  1  0  0  0
  9 10  1  0  0  0
  9 11  1  0  0  0
  9 12  1  0  0  0
 10 19  1  0  0  0
 10 20  1  0  0  0
 10 21  1  0  0  0
 11 22  1  0  0  0
 11 23  1  0  0  0
 11 24  1  0  0  0
 12 25  1  0  0  0
 12 26  1  0  0  0
 12 27  1  0  0  0
M  END
> <EXTREG>
2-amino-4-tert-butyphenol

> <# Confs.>
1

> <LIC50>
0.366

> <Name>
2-amino-4-tert-butyphenol

$$$$
  2-4-diaminophenol
XX    ILIB04271811163D

 17 17  0  0  1  0              1 V2000
    2.2041    0.0080    0.0080 O   0  0  0  0  0
    0.8118   -2.3652    0.0078 N   0  0  0  0  0
   -3.2871    0.0112   -0.0080 N   0  0  0  0  0
    0.8450    0.0080    0.0080 C   0  0  0  0  0
    0.1450   -1.2114    0.0078 C   0  0  0  0  0
   -1.9546    0.0080   -0.0080 C   0  0  0  0  0
    0.1450    1.2129    0.0080 C   0  0  0  0  0
   -1.2549   -1.2129   -0.0080 C   0  0  0  0  0
   -1.2549    1.2129    0.0078 C   0  0  0  0  0
    2.5410    0.9824    0.0104 H   0  0  0  0  0
    0.3081   -3.2383   -0.0112 H   0  0  0  0  0
    1.8198   -2.3652    0.0112 H   0  0  0  0  0
   -3.7920   -0.8721   -0.0108 H   0  0  0  0  0
   -3.7910    0.8738   -0.0080 H   0  0  0  0  0
    0.6868    2.1514    0.0144 H   0  0  0  0  0
   -1.7964   -2.1514   -0.0144 H   0  0  0  0  0
   -1.7969    2.1514    0.0078 H   0  0  0  0  0
  1  4  1  0  0  0
  1 10  1  0  0  0
  2  5  1  0  0  0
  2 11  1  0  0  0
  2 12  1  0  0  0
  3  6  1  0  0  0
  3 13  1  0  0  0
  3 14  1  0  0  0
  4  5  1  0  0  0
  4  7  2  0  0  0
  5  8  2  0  0  0
  6  8  1  0  0  0
  6  9  2  0  0  0
  7  9  1  0  0  0
  7 15  1  0  0  0
  8 16  1  0  0  0
  9 17  1  0  0  0
M  END
> <EXTREG>
2-4-diaminophenol

> <# Confs.>
1

> <LIC50>
0.127

> <Name>
2-4-diaminophenol

$$$$
  5-amino-2-methoxyphenol
XX    ILIB04271811163D

 19 19  0  0  1  0              1 V2000
    0.8252   -2.3887    0.0078 O   0  0  0  0  0
    2.2041    0.0080    0.0080 O   0  0  0  0  0
   -1.9214    2.3672    0.0078 N   0  0  0  0  0
    0.1450   -1.2114    0.0078 C   0  0  0  0  0
    0.8450    0.0080    0.0080 C   0  0  0  0  0
   -1.2549    1.2129    0.0078 C   0  0  0  0  0
    0.1450    1.2129    0.0080 C   0  0  0  0  0
   -1.2549   -1.2129   -0.0080 C   0  0  0  0  0
   -1.9546    0.0080   -0.0080 C   0  0  0  0  0
    2.2266   -2.1279    0.0088 C   0  0  0  0  0
    2.5410    0.9824    0.0104 H   0  0  0  0  0
   -2.9287    2.3672   -0.0112 H   0  0  0  0  0
   -1.4175    3.2402    0.0112 H   0  0  0  0  0
    0.6868    2.1514    0.0144 H   0  0  0  0  0
   -1.7964   -2.1514   -0.0144 H   0  0  0  0  0
   -3.0381    0.0112   -0.0144 H   0  0  0  0  0
    2.4912   -1.5557   -0.8892 H   0  0  0  0  0
    2.4893   -1.5562    0.8921 H   0  0  0  0  0
    2.7725   -3.0723    0.0088 H   0  0  0  0  0
  1  4  1  0  0  0
  1 10  1  0  0  0
  2  5  1  0  0  0
  2 11  1  0  0  0
  3  6  1  0  0  0
  3 12  1  0  0  0
  3 13  1  0  0  0
  4  5  1  0  0  0
  4  8  2  0  0  0
  5  7  2  0  0  0
  6  7  1  0  0  0
  6  9  2  0  0  0
  7 14  1  0  0  0
  8  9  1  0  0  0
  8 15  1  0  0  0
  9 16  1  0  0  0
 10 17  1  0  0  0
 10 18  1  0  0  0
 10 19  1  0  0  0
M  END
> <EXTREG>
5-amino-2-methoxyphenol

> <# Confs.>
1

> <LIC50>
0.45

> <Name>
5-amino-2-methoxyphenol

$$$$
  4-amino-2-cresol
XX    ILIB04271811163D

 18 18  0  0  1  0              1 V2000
    2.2041    0.0080    0.0080 O   0  0  0  0  0
   -3.2871    0.0112   -0.0080 N   0  0  0  0  0
    0.8450    0.0080    0.0080 C   0  0  0  0  0
   -1.9546    0.0080   -0.0080 C   0  0  0  0  0
    0.1450   -1.2114    0.0078 C   0  0  0  0  0
    0.1450    1.2129    0.0080 C   0  0  0  0  0
   -1.2549   -1.2129   -0.0080 C   0  0  0  0  0
   -1.2549    1.2129    0.0078 C   0  0  0  0  0
    0.8979   -2.5146    0.0078 C   0  0  0  0  0
    2.5410    0.9824    0.0104 H   0  0  0  0  0
   -3.7920   -0.8721   -0.0108 H   0  0  0  0  0
   -3.7910    0.8738   -0.0080 H   0  0  0  0  0
    0.6868    2.1514    0.0144 H   0  0  0  0  0
   -1.7964   -2.1514   -0.0144 H   0  0  0  0  0
   -1.7969    2.1514    0.0078 H   0  0  0  0  0
    0.6338   -3.0869    0.8904 H   0  0  0  0  0
    0.6350   -3.0859   -0.8911 H   0  0  0  0  0
    1.9702   -2.3145    0.0128 H   0  0  0  0  0
  1  3  1  0  0  0
  1 10  1  0  0  0
  2  4  1  0  0  0
  2 11  1  0  0  0
  2 12  1  0  0  0
  3  5  1  0  0  0
  3  6  2  0  0  0
  4  7  1  0  0  0
  4  8  2  0  0  0
  5  7  2  0  0  0
  5  9  1  0  0  0
  6  8  1  0  0  0
  6 13  1  0  0  0
  7 14  1  0  0  0
  8 15  1  0  0  0
  9 16  1  0  0  0
  9 17  1  0  0  0
  9 18  1  0  0  0
M  END
> <EXTREG>
4-amino-2-cresol

> <# Confs.>
1

> <LIC50>
1.307

> <Name>
4-amino-2-cresol

$$$$
  6-amino-2-4-dimethylphenol
XX    ILIB04271811163D

 21 21  0  0  1  0              1 V2000
    2.2041    0.0080    0.0080 O   0  0  0  0  0
    0.8113    2.3672    0.0080 N   0  0  0  0  0
    0.8450    0.0080    0.0080 C   0  0  0  0  0
    0.1450    1.2129    0.0080 C   0  0  0  0  0
    0.1450   -1.2114    0.0078 C   0  0  0  0  0
   -1.9546    0.0080   -0.0080 C   0  0  0  0  0
   -1.2549    1.2129    0.0078 C   0  0  0  0  0
   -1.2549   -1.2129   -0.0080 C   0  0  0  0  0
    0.8979   -2.5146    0.0078 C   0  0  0  0  0
   -3.4600    0.0128   -0.0084 C   0  0  0  0  0
    2.5410    0.9824    0.0104 H   0  0  0  0  0
    1.8193    2.3672    0.0108 H   0  0  0  0  0
    0.3075    3.2402    0.0080 H   0  0  0  0  0
   -1.7969    2.1514    0.0078 H   0  0  0  0  0
   -1.7964   -2.1514   -0.0144 H   0  0  0  0  0
    0.6338   -3.0869    0.8904 H   0  0  0  0  0
    0.6350   -3.0859   -0.8911 H   0  0  0  0  0
    1.9702   -2.3145    0.0128 H   0  0  0  0  0
   -3.8223   -0.5129   -0.8931 H   0  0  0  0  0
   -3.8242   -0.5137    0.8882 H   0  0  0  0  0
   -3.8232    1.0293   -0.0152 H   0  0  0  0  0
  1  3  1  0  0  0
  1 11  1  0  0  0
  2  4  1  0  0  0
  2 12  1  0  0  0
  2 13  1  0  0  0
  3  4  2  0  0  0
  3  5  1  0  0  0
  4  7  1  0  0  0
  5  8  2  0  0  0
  5  9  1  0  0  0
  6  7  2  0  0  0
  6  8  1  0  0  0
  6 10  1  0  0  0
  7 14  1  0  0  0
  8 15  1  0  0  0
  9 16  1  0  0  0
  9 17  1  0  0  0
  9 18  1  0  0  0
 10 19  1  0  0  0
 10 20  1  0  0  0
 10 21  1  0  0  0
M  END
> <EXTREG>
6-amino-2-4-dimethylphenol

> <# Confs.>
1

> <LIC50>
0.886

> <Name>
6-amino-2-4-dimethylphenol

$$$$
  3-aminophenol
XX    ILIB04271811163D

 15 15  0  0  1  0              1 V2000
    2.2041    0.0080    0.0080 O   0  0  0  0  0
   -1.9209   -2.3672   -0.0080 N   0  0  0  0  0
    0.8450    0.0080    0.0080 C   0  0  0  0  0
   -1.2549   -1.2129   -0.0080 C   0  0  0  0  0
    0.1450   -1.2114    0.0078 C   0  0  0  0  0
    0.1450    1.2129    0.0080 C   0  0  0  0  0
   -1.9546    0.0080   -0.0080 C   0  0  0  0  0
   -1.2549    1.2129    0.0078 C   0  0  0  0  0
    2.5410    0.9824    0.0104 H   0  0  0  0  0
   -1.4170   -3.2402   -0.0080 H   0  0  0  0  0
   -2.9287   -2.3672   -0.0108 H   0  0  0  0  0
    0.6873   -2.1504    0.0078 H   0  0  0  0  0
    0.6868    2.1514    0.0144 H   0  0  0  0  0
   -3.0381    0.0112   -0.0144 H   0  0  0  0  0
   -1.7969    2.1514    0.0078 H   0  0  0  0  0
  1  3  1  0  0  0
  1  9  1  0  0  0
  2  4  1  0  0  0
  2 10  1  0  0  0
  2 11  1  0  0  0
  3  5  1  0  0  0
  3  6  2  0  0  0
  4  5  2  0  0  0
  4  7  1  0  0  0
  5 12  1  0  0  0
  6  8  1  0  0  0
  6 13  1  0  0  0
  7  8  2  0  0  0
  7 14  1  0  0  0
  8 15  1  0  0  0
M  END
> <EXTREG>
3-aminophenol

> <# Confs.>
1

> <LIC50>
-0.524

> <Name>
3-aminophenol

$$$$
  2-amino-4-chloro-5-nitrophenol
XX    ILIB04271811163D

 17 17  0  0  1  0              1 V2000
   -3.6543    0.0128   -0.0088 Cl  0  0  0  0  0
   -3.1406    2.3672   -0.0144 O   0  0  0  0  0
   -1.3110    3.4238    0.0144 O   0  0  0  0  0
    2.2041    0.0080    0.0080 O   0  0  0  0  0
   -1.9214    2.3672    0.0078 N   0  2  0  0  0
    0.8118   -2.3652    0.0078 N   0  0  0  0  0
   -1.9546    0.0080   -0.0080 C   0  0  0  0  0
    0.8450    0.0080    0.0080 C   0  0  0  0  0
   -1.2549    1.2129    0.0078 C   0  0  0  0  0
    0.1450   -1.2114    0.0078 C   0  0  0  0  0
   -1.2549   -1.2129   -0.0080 C   0  0  0  0  0
    0.1450    1.2129    0.0080 C   0  0  0  0  0
    2.5410    0.9824    0.0104 H   0  0  0  0  0
    0.3081   -3.2383   -0.0112 H   0  0  0  0  0
    1.8198   -2.3652    0.0112 H   0  0  0  0  0
   -1.7964   -2.1514   -0.0144 H   0  0  0  0  0
    0.6868    2.1514    0.0144 H   0  0  0  0  0
  1  7  1  0  0  0
  2  5  2  0  0  0
  3  5  2  0  0  0
  4  8  1  0  0  0
  4 13  1  0  0  0
  5  9  1  0  0  0
  6 10  1  0  0  0
  6 14  1  0  0  0
  6 15  1  0  0  0
  7  9  2  0  0  0
  7 11  1  0  0  0
  8 10  1  0  0  0
  8 12  2  0  0  0
  9 12  1  0  0  0
 10 11  2  0  0  0
 11 16  1  0  0  0
 12 17  1  0  0  0
M  END
> <EXTREG>
2-amino-4-chloro-5-nitrophenol

> <# Confs.>
1

> <LIC50>
1.174

> <Name>
2-amino-4-chloro-5-nitrophenol

$$$$
  2-hydroxybenzoic_acid
XX    ILIB04271811163D

 16 16  0  0  1  0              1 V2000
    2.2041    0.0080    0.0080 O   0  0  0  0  0
    0.2732   -3.5361   -0.0144 O   0  0  0  0  0
    2.3057   -2.4834    0.0080 O   0  0  0  0  0
    0.8450    0.0080    0.0080 C   0  0  0  0  0
    0.1450   -1.2114    0.0078 C   0  0  0  0  0
    0.1450    1.2129    0.0080 C   0  0  0  0  0
   -1.2549   -1.2129   -0.0080 C   0  0  0  0  0
   -1.2549    1.2129    0.0078 C   0  0  0  0  0
   -1.9546    0.0080   -0.0080 C   0  0  0  0  0
    0.8804   -2.4844    0.0078 C   0  0  0  0  0
    2.5410    0.9824    0.0104 H   0  0  0  0  0
    2.6426   -3.4658    0.0144 H   0  0  0  0  0
    0.6868    2.1514    0.0144 H   0  0  0  0  0
   -1.7964   -2.1514   -0.0144 H   0  0  0  0  0
   -1.7969    2.1514    0.0078 H   0  0  0  0  0
   -3.0381    0.0112   -0.0144 H   0  0  0  0  0
  1  4  1  0  0  0
  1 11  1  0  0  0
  2 10  2  0  0  0
  3 10  1  0  0  0
  3 12  1  0  0  0
  4  5  1  0  0  0
  4  6  2  0  0  0
  5  7  2  0  0  0
  5 10  1  0  0  0
  6  8  1  0  0  0
  6 13  1  0  0  0
  7  9  1  0  0  0
  7 14  1  0  0  0
  8  9  2  0  0  0
  8 15  1  0  0  0
  9 16  1  0  0  0
M  END
> <EXTREG>
2-hydroxybenzoic_acid

> <# Confs.>
1

> <LIC50>
-0.512

> <Name>
2-hydroxybenzoic_acid

$$$$
  2-aminophenol
XX    ILIB04271811163D

 15 15  0  0  1  0              1 V2000
    2.2041    0.0080    0.0080 O   0  0  0  0  0
    0.8118   -2.3652    0.0078 N   0  0  0  0  0
    0.8450    0.0080    0.0080 C   0  0  0  0  0
    0.1450   -1.2114    0.0078 C   0  0  0  0  0
    0.1450    1.2129    0.0080 C   0  0  0  0  0
   -1.2549   -1.2129   -0.0080 C   0  0  0  0  0
   -1.2549    1.2129    0.0078 C   0  0  0  0  0
   -1.9546    0.0080   -0.0080 C   0  0  0  0  0
    2.5410    0.9824    0.0104 H   0  0  0  0  0
    0.3081   -3.2383   -0.0112 H   0  0  0  0  0
    1.8198   -2.3652    0.0112 H   0  0  0  0  0
    0.6868    2.1514    0.0144 H   0  0  0  0  0
   -1.7964   -2.1514   -0.0144 H   0  0  0  0  0
   -1.7969    2.1514    0.0078 H   0  0  0  0  0
   -3.0381    0.0112   -0.0144 H   0  0  0  0  0
  1  3  1  0  0  0
  1  9  1  0  0  0
  2  4  1  0  0  0
  2 10  1  0  0  0
  2 11  1  0  0  0
  3  4  1  0  0  0
  3  5  2  0  0  0
  4  6  2  0  0  0
  5  7  1  0  0  0
  5 12  1  0  0  0
  6  8  1  0  0  0
  6 13  1  0  0  0
  7  8  2  0  0  0
  7 14  1  0  0  0
  8 15  1  0  0  0
M  END
> <EXTREG>
2-aminophenol

> <# Confs.>
1

> <LIC50>
0.939

> <Name>
2-aminophenol

$$$$
  2-amino-4-chlorophenol
XX    ILIB04271811163D

 15 15  0  0  1  0              1 V2000
   -3.6543    0.0128   -0.0088 Cl  0  0  0  0  0
    2.2041    0.0080    0.0080 O   0  0  0  0  0
    0.8118   -2.3652    0.0078 N   0  0  0  0  0
   -1.9546    0.0080   -0.0080 C   0  0  0  0  0
    0.8450    0.0080    0.0080 C   0  0  0  0  0
    0.1450   -1.2114    0.0078 C   0  0  0  0  0
   -1.2549   -1.2129   -0.0080 C   0  0  0  0  0
   -1.2549    1.2129    0.0078 C   0  0  0  0  0
    0.1450    1.2129    0.0080 C   0  0  0  0  0
    2.5410    0.9824    0.0104 H   0  0  0  0  0
    0.3081   -3.2383   -0.0112 H   0  0  0  0  0
    1.8198   -2.3652    0.0112 H   0  0  0  0  0
   -1.7964   -2.1514   -0.0144 H   0  0  0  0  0
   -1.7969    2.1514    0.0078 H   0  0  0  0  0
    0.6868    2.1514    0.0144 H   0  0  0  0  0
  1  4  1  0  0  0
  2  5  1  0  0  0
  2 10  1  0  0  0
  3  6  1  0  0  0
  3 11  1  0  0  0
  3 12  1  0  0  0
  4  7  1  0  0  0
  4  8  2  0  0  0
  5  6  1  0  0  0
  5  9  2  0  0  0
  6  7  2  0  0  0
  7 13  1  0  0  0
  8  9  1  0  0  0
  8 14  1  0  0  0
  9 15  1  0  0  0
M  END
> <EXTREG>
2-amino-4-chlorophenol

> <# Confs.>
1

> <LIC50>
0.775

> <Name>
2-amino-4-chlorophenol

$$$$
  3-amino-4-hydroxybenzenesulfonic_acid
XX    ILIB04271811163D

 19 19  0  0  1  0              1 V2000
   -3.7715    0.0128   -0.0092 S   0  0  0  0  0
   -4.1016   -0.5669   -1.2725 O   0  0  0  0  0
   -4.1953   -0.7256    1.1538 O   0  0  0  0  0
   -4.5098    1.3057   -0.0092 O   0  0  0  0  0
    2.2041    0.0080    0.0080 O   0  0  0  0  0
    0.8118   -2.3652    0.0078 N   0  0  0  0  0
   -1.9546    0.0080   -0.0080 C   0  0  0  0  0
    0.8450    0.0080    0.0080 C   0  0  0  0  0
    0.1450   -1.2114    0.0078 C   0  0  0  0  0
   -1.2549   -1.2129   -0.0080 C   0  0  0  0  0
   -1.2549    1.2129    0.0078 C   0  0  0  0  0
    0.1450    1.2129    0.0080 C   0  0  0  0  0
   -5.5312    1.1143   -0.0124 H   0  0  0  0  0
    2.5410    0.9824    0.0104 H   0  0  0  0  0
    0.3081   -3.2383   -0.0112 H   0  0  0  0  0
    1.8198   -2.3652    0.0112 H   0  0  0  0  0
   -1.7964   -2.1514   -0.0144 H   0  0  0  0  0
   -1.7969    2.1514    0.0078 H   0  0  0  0  0
    0.6868    2.1514    0.0144 H   0  0  0  0  0
  1  2  2  0  0  0
  1  3  2  0  0  0
  1  4  1  0  0  0
  1  7  1  0  0  0
  4 13  1  0  0  0
  5  8  1  0  0  0
  5 14  1  0  0  0
  6  9  1  0  0  0
  6 15  1  0  0  0
  6 16  1  0  0  0
  7 10  1  0  0  0
  7 11  2  0  0  0
  8  9  1  0  0  0
  8 12  2  0  0  0
  9 10  2  0  0  0
 10 17  1  0  0  0
 11 12  1  0  0  0
 11 18  1  0  0  0
 12 19  1  0  0  0
M  END
> <EXTREG>
3-amino-4-hydroxybenzenesulfonic_acid

> <# Confs.>
1

> <LIC50>
-1.053

> <Name>
3-amino-4-hydroxybenzenesulfonic_acid

$$$$
  3-hydroxybenzioc_acid
XX    ILIB04271811163D

 16 16  0  0  1  0              1 V2000
    2.2041    0.0080    0.0080 O   0  0  0  0  0
   -1.3818   -3.5381   -0.0080 O   0  0  0  0  0
   -3.4150   -2.4863   -0.0124 O   0  0  0  0  0
    0.8450    0.0080    0.0080 C   0  0  0  0  0
   -1.2549   -1.2129   -0.0080 C   0  0  0  0  0
    0.1450   -1.2114    0.0078 C   0  0  0  0  0
    0.1450    1.2129    0.0080 C   0  0  0  0  0
   -1.9546    0.0080   -0.0080 C   0  0  0  0  0
   -1.2549    1.2129    0.0078 C   0  0  0  0  0
   -1.9897   -2.4854   -0.0080 C   0  0  0  0  0
    2.5410    0.9824    0.0104 H   0  0  0  0  0
   -3.7510   -3.4678   -0.0148 H   0  0  0  0  0
    0.6873   -2.1504    0.0078 H   0  0  0  0  0
    0.6868    2.1514    0.0144 H   0  0  0  0  0
   -3.0381    0.0112   -0.0144 H   0  0  0  0  0
   -1.7969    2.1514    0.0078 H   0  0  0  0  0
  1  4  1  0  0  0
  1 11  1  0  0  0
  2 10  2  0  0  0
  3 10  1  0  0  0
  3 12  1  0  0  0
  4  6  1  0  0  0
  4  7  2  0  0  0
  5  6  2  0  0  0
  5  8  1  0  0  0
  5 10  1  0  0  0
  6 13  1  0  0  0
  7  9  1  0  0  0
  7 14  1  0  0  0
  8  9  2  0  0  0
  8 15  1  0  0  0
  9 16  1  0  0  0
M  END
> <EXTREG>
3-hydroxybenzioc_acid

> <# Confs.>
1

> <LIC50>
-0.814

> <Name>
3-hydroxybenzioc_acid

$$$$
  2-amino-4-nitrophenol
XX    ILIB04271811163D

 17 17  0  0  1  0              1 V2000
   -3.8975   -1.0557   -0.0112 O   0  0  0  0  0
   -3.8975    1.0571   -0.0080 O   0  0  0  0  0
    2.2041    0.0080    0.0080 O   0  0  0  0  0
   -3.2871    0.0112   -0.0080 N   0  2  0  0  0
    0.8118   -2.3652    0.0078 N   0  0  0  0  0
    0.8450    0.0080    0.0080 C   0  0  0  0  0
   -1.9546    0.0080   -0.0080 C   0  0  0  0  0
    0.1450   -1.2114    0.0078 C   0  0  0  0  0
    0.1450    1.2129    0.0080 C   0  0  0  0  0
   -1.2549   -1.2129   -0.0080 C   0  0  0  0  0
   -1.2549    1.2129    0.0078 C   0  0  0  0  0
    2.5410    0.9824    0.0104 H   0  0  0  0  0
    0.3081   -3.2383   -0.0112 H   0  0  0  0  0
    1.8198   -2.3652    0.0112 H   0  0  0  0  0
    0.6868    2.1514    0.0144 H   0  0  0  0  0
   -1.7964   -2.1514   -0.0144 H   0  0  0  0  0
   -1.7969    2.1514    0.0078 H   0  0  0  0  0
  1  4  2  0  0  0
  2  4  2  0  0  0
  3  6  1  0  0  0
  3 12  1  0  0  0
  4  7  1  0  0  0
  5  8  1  0  0  0
  5 13  1  0  0  0
  5 14  1  0  0  0
  6  8  1  0  0  0
  6  9  2  0  0  0
  7 10  1  0  0  0
  7 11  2  0  0  0
  8 10  2  0  0  0
  9 11  1  0  0  0
  9 15  1  0  0  0
 10 16  1  0  0  0
 11 17  1  0  0  0
M  END
> <EXTREG>
2-amino-4-nitrophenol

> <# Confs.>
1

> <LIC50>
0.475

> <Name>
2-amino-4-nitrophenol

$$$$
  4-hydroxybenzoic_acid
XX    ILIB04271811163D

 16 16  0  0  1  0              1 V2000
    2.2041    0.0080    0.0080 O   0  0  0  0  0
   -4.0312   -1.0513   -0.0116 O   0  0  0  0  0
   -4.1367    1.2354   -0.0084 O   0  0  0  0  0
    0.8450    0.0080    0.0080 C   0  0  0  0  0
   -1.9546    0.0080   -0.0080 C   0  0  0  0  0
    0.1450   -1.2114    0.0078 C   0  0  0  0  0
    0.1450    1.2129    0.0080 C   0  0  0  0  0
   -1.2549   -1.2129   -0.0080 C   0  0  0  0  0
   -1.2549    1.2129    0.0078 C   0  0  0  0  0
   -3.4248    0.0128   -0.0084 C   0  0  0  0  0
    2.5410    0.9824    0.0104 H   0  0  0  0  0
   -5.1562    1.0361   -0.0116 H   0  0  0  0  0
    0.6873   -2.1504    0.0078 H   0  0  0  0  0
    0.6868    2.1514    0.0144 H   0  0  0  0  0
   -1.7964   -2.1514   -0.0144 H   0  0  0  0  0
   -1.7969    2.1514    0.0078 H   0  0  0  0  0
  1  4  1  0  0  0
  1 11  1  0  0  0
  2 10  2  0  0  0
  3 10  1  0  0  0
  3 12  1  0  0  0
  4  6  1  0  0  0
  4  7  2  0  0  0
  5  8  1  0  0  0
  5  9  2  0  0  0
  5 10  1  0  0  0
  6  8  2  0  0  0
  6 13  1  0  0  0
  7  9  1  0  0  0
  7 14  1  0  0  0
  8 15  1  0  0  0
  9 16  1  0  0  0
M  END
> <EXTREG>
4-hydroxybenzoic_acid

> <# Confs.>
1

> <LIC50>
-1.021

> <Name>
4-hydroxybenzoic_acid

$$$$
  4-nitrophenol
XX    ILIB04271811163D

 15 15  0  0  1  0              1 V2000
   -3.8975   -1.0557   -0.0112 O   0  0  0  0  0
   -3.8975    1.0571   -0.0080 O   0  0  0  0  0
    2.2041    0.0080    0.0080 O   0  0  0  0  0
   -3.2871    0.0112   -0.0080 N   0  2  0  0  0
    0.8450    0.0080    0.0080 C   0  0  0  0  0
   -1.9546    0.0080   -0.0080 C   0  0  0  0  0
    0.1450   -1.2114    0.0078 C   0  0  0  0  0
    0.1450    1.2129    0.0080 C   0  0  0  0  0
   -1.2549   -1.2129   -0.0080 C   0  0  0  0  0
   -1.2549    1.2129    0.0078 C   0  0  0  0  0
    2.5410    0.9824    0.0104 H   0  0  0  0  0
    0.6873   -2.1504    0.0078 H   0  0  0  0  0
    0.6868    2.1514    0.0144 H   0  0  0  0  0
   -1.7964   -2.1514   -0.0144 H   0  0  0  0  0
   -1.7969    2.1514    0.0078 H   0  0  0  0  0
  1  4  2  0  0  0
  2  4  2  0  0  0
  3  5  1  0  0  0
  3 11  1  0  0  0
  4  6  1  0  0  0
  5  7  1  0  0  0
  5  8  2  0  0  0
  6  9  1  0  0  0
  6 10  2  0  0  0
  7  9  2  0  0  0
  7 12  1  0  0  0
  8 10  1  0  0  0
  8 13  1  0  0  0
  9 14  1  0  0  0
 10 15  1  0  0  0
M  END
> <EXTREG>
4-nitrophenol

> <# Confs.>
1

> <LIC50>
1.42

> <Name>
4-nitrophenol

$$$$
  4-acetamidophenol
XX    ILIB04271811163D

 20 20  0  0  1  0              1 V2000
    2.1709   -0.0116    0.0080 O   0  0  0  0  0
   -3.3799    2.2002   -0.0088 O   0  0  0  0  0
   -3.3213   -0.0112   -0.0080 N   0  0  0  0  0
    0.8110   -0.0116    0.0080 C   0  0  0  0  0
   -1.9888   -0.0116   -0.0080 C   0  0  0  0  0
    0.1111   -1.2178    0.0078 C   0  0  0  0  0
    0.1111    1.2065    0.0080 C   0  0  0  0  0
   -1.2886   -1.2188   -0.0080 C   0  0  0  0  0
   -1.2886    1.2065    0.0078 C   0  0  0  0  0
   -3.9873    1.1489   -0.0080 C   0  0  0  0  0
   -5.4980    1.1489   -0.0124 C   0  0  0  0  0
    2.5068    0.9761    0.0104 H   0  0  0  0  0
   -3.8252   -0.8782   -0.0108 H   0  0  0  0  0
    0.6533   -2.1562    0.0078 H   0  0  0  0  0
    0.6531    2.1445    0.0136 H   0  0  0  0  0
   -1.8306   -2.1572   -0.0144 H   0  0  0  0  0
   -1.8306    2.1445    0.0078 H   0  0  0  0  0
   -5.8594    0.6353   -0.8943 H   0  0  0  0  0
   -5.8613    0.6345    0.8872 H   0  0  0  0  0
   -5.8613    2.1777   -0.0116 H   0  0  0  0  0
  1  4  1  0  0  0
  1 12  1  0  0  0
  2 10  2  0  0  0
  3  5  1  0  0  0
  3 10  1  0  0  0
  3 13  1  0  0  0
  4  6  1  0  0  0
  4  7  2  0  0  0
  5  8  1  0  0  0
  5  9  2  0  0  0
  6  8  2  0  0  0
  6 14  1  0  0  0
  7  9  1  0  0  0
  7 15  1  0  0  0
  8 16  1  0  0  0
  9 17  1  0  0  0
 10 11  1  0  0  0
 11 18  1  0  0  0
 11 19  1  0  0  0
 11 20  1  0  0  0
M  END
> <EXTREG>
4-acetamidophenol

> <# Confs.>
1

> <LIC50>
-0.82

> <Name>
4-acetamidophenol

$$$$
  4-nitrosophenol
XX    ILIB04271811163D

 14 14  0  0  1  0              1 V2000
   -3.8975    1.0571   -0.0080 O   0  0  0  0  0
    2.2041    0.0080    0.0080 O   0  0  0  0  0
   -3.2871    0.0112   -0.0080 N   0  0  0  0  0
    0.8450    0.0080    0.0080 C   0  0  0  0  0
   -1.9546    0.0080   -0.0080 C   0  0  0  0  0
    0.1450   -1.2114    0.0078 C   0  0  0  0  0
    0.1450    1.2129    0.0080 C   0  0  0  0  0
   -1.2549   -1.2129   -0.0080 C   0  0  0  0  0
   -1.2549    1.2129    0.0078 C   0  0  0  0  0
    2.5410    0.9824    0.0104 H   0  0  0  0  0
    0.6873   -2.1504    0.0078 H   0  0  0  0  0
    0.6868    2.1514    0.0144 H   0  0  0  0  0
   -1.7964   -2.1514   -0.0144 H   0  0  0  0  0
   -1.7969    2.1514    0.0078 H   0  0  0  0  0
  1  3  2  0  0  0
  2  4  1  0  0  0
  2 10  1  0  0  0
  3  5  1  0  0  0
  4  6  1  0  0  0
  4  7  2  0  0  0
  5  8  1  0  0  0
  5  9  2  0  0  0
  6  8  2  0  0  0
  6 11  1  0  0  0
  7  9  1  0  0  0
  7 12  1  0  0  0
  8 13  1  0  0  0
  9 14  1  0  0  0
M  END
> <EXTREG>
4-nitrosophenol

> <# Confs.>
1

> <LIC50>
0.654

> <Name>
4-nitrosophenol

$$$$
  4-methyl-2-nitrophenol
XX    ILIB04271811163D

 18 18  0  0  1  0              1 V2000
    0.2023   -3.4219   -0.0144 O   0  0  0  0  0
    2.0312   -2.3652    0.0144 O   0  0  0  0  0
    2.2041    0.0080    0.0080 O   0  0  0  0  0
    0.8118   -2.3652    0.0078 N   0  2  0  0  0
    0.8450    0.0080    0.0080 C   0  0  0  0  0
    0.1450   -1.2114    0.0078 C   0  0  0  0  0
   -1.9546    0.0080   -0.0080 C   0  0  0  0  0
    0.1450    1.2129    0.0080 C   0  0  0  0  0
   -1.2549   -1.2129   -0.0080 C   0  0  0  0  0
   -1.2549    1.2129    0.0078 C   0  0  0  0  0
   -3.4600    0.0128   -0.0084 C   0  0  0  0  0
    2.5410    0.9824    0.0104 H   0  0  0  0  0
    0.6868    2.1514    0.0144 H   0  0  0  0  0
   -1.7964   -2.1514   -0.0144 H   0  0  0  0  0
   -1.7969    2.1514    0.0078 H   0  0  0  0  0
   -3.8223   -0.5129   -0.8931 H   0  0  0  0  0
   -3.8242   -0.5137    0.8882 H   0  0  0  0  0
   -3.8232    1.0293   -0.0152 H   0  0  0  0  0
  1  4  2  0  0  0
  2  4  2  0  0  0
  3  5  1  0  0  0
  3 12  1  0  0  0
  4  6  1  0  0  0
  5  6  1  0  0  0
  5  8  2  0  0  0
  6  9  2  0  0  0
  7  9  1  0  0  0
  7 10  2  0  0  0
  7 11  1  0  0  0
  8 10  1  0  0  0
  8 13  1  0  0  0
  9 14  1  0  0  0
 10 15  1  0  0  0
 11 16  1  0  0  0
 11 17  1  0  0  0
 11 18  1  0  0  0
M  END
> <EXTREG>
4-methyl-2-nitrophenol

> <# Confs.>
1

> <LIC50>
0.571

> <Name>
4-methyl-2-nitrophenol

$$$$
  4-aminophenol
XX    ILIB04271811163D

 15 15  0  0  1  0              1 V2000
    2.2041    0.0080    0.0080 O   0  0  0  0  0
   -3.2871    0.0112   -0.0080 N   0  0  0  0  0
    0.8450    0.0080    0.0080 C   0  0  0  0  0
   -1.9546    0.0080   -0.0080 C   0  0  0  0  0
    0.1450   -1.2114    0.0078 C   0  0  0  0  0
    0.1450    1.2129    0.0080 C   0  0  0  0  0
   -1.2549   -1.2129   -0.0080 C   0  0  0  0  0
   -1.2549    1.2129    0.0078 C   0  0  0  0  0
    2.5410    0.9824    0.0104 H   0  0  0  0  0
   -3.7920   -0.8721   -0.0108 H   0  0  0  0  0
   -3.7910    0.8738   -0.0080 H   0  0  0  0  0
    0.6873   -2.1504    0.0078 H   0  0  0  0  0
    0.6868    2.1514    0.0144 H   0  0  0  0  0
   -1.7964   -2.1514   -0.0144 H   0  0  0  0  0
   -1.7969    2.1514    0.0078 H   0  0  0  0  0
  1  3  1  0  0  0
  1  9  1  0  0  0
  2  4  1  0  0  0
  2 10  1  0  0  0
  2 11  1  0  0  0
  3  5  1  0  0  0
  3  6  2  0  0  0
  4  7  1  0  0  0
  4  8  2  0  0  0
  5  7  2  0  0  0
  5 12  1  0  0  0
  6  8  1  0  0  0
  6 13  1  0  0  0
  7 14  1  0  0  0
  8 15  1  0  0  0
M  END
> <EXTREG>
4-aminophenol

> <# Confs.>
1

> <LIC50>
-0.076

> <Name>
4-aminophenol

$$$$
  4-methyl-3-nitrophenol
XX    ILIB04271811163D

 18 18  0  0  1  0              1 V2000
   -1.3110   -3.4238   -0.0080 O   0  0  0  0  0
   -3.1406   -2.3672   -0.0112 O   0  0  0  0  0
    2.2041    0.0080    0.0080 O   0  0  0  0  0
   -1.9209   -2.3672   -0.0080 N   0  2  0  0  0
    0.8450    0.0080    0.0080 C   0  0  0  0  0
   -1.2549   -1.2129   -0.0080 C   0  0  0  0  0
   -1.9546    0.0080   -0.0080 C   0  0  0  0  0
    0.1450   -1.2114    0.0078 C   0  0  0  0  0
    0.1450    1.2129    0.0080 C   0  0  0  0  0
   -1.2549    1.2129    0.0078 C   0  0  0  0  0
   -3.4600    0.0128   -0.0084 C   0  0  0  0  0
    2.5410    0.9824    0.0104 H   0  0  0  0  0
    0.6873   -2.1504    0.0078 H   0  0  0  0  0
    0.6868    2.1514    0.0144 H   0  0  0  0  0
   -1.7969    2.1514    0.0078 H   0  0  0  0  0
   -3.8223   -0.5129   -0.8931 H   0  0  0  0  0
   -3.8242   -0.5137    0.8882 H   0  0  0  0  0
   -3.8232    1.0293   -0.0152 H   0  0  0  0  0
  1  4  2  0  0  0
  2  4  2  0  0  0
  3  5  1  0  0  0
  3 12  1  0  0  0
  4  6  1  0  0  0
  5  8  1  0  0  0
  5  9  2  0  0  0
  6  7  1  0  0  0
  6  8  2  0  0  0
  7 10  2  0  0  0
  7 11  1  0  0  0
  8 13  1  0  0  0
  9 10  1  0  0  0
  9 14  1  0  0  0
 10 15  1  0  0  0
 11 16  1  0  0  0
 11 17  1  0  0  0
 11 18  1  0  0  0
M  END
> <EXTREG>
4-methyl-3-nitrophenol

> <# Confs.>
1

> <LIC50>
0.74

> <Name>
4-methyl-3-nitrophenol

$$$$
  3-methyl-4-nitrophenol
XX    ILIB04271811163D

 18 18  0  0  1  0              1 V2000
   -3.8975   -1.0557   -0.0112 O   0  0  0  0  0
   -3.8975    1.0571   -0.0080 O   0  0  0  0  0
    2.2041    0.0080    0.0080 O   0  0  0  0  0
   -3.2871    0.0112   -0.0080 N   0  2  0  0  0
    0.8450    0.0080    0.0080 C   0  0  0  0  0
   -1.9546    0.0080   -0.0080 C   0  0  0  0  0
   -1.2549   -1.2129   -0.0080 C   0  0  0  0  0
    0.1450   -1.2114    0.0078 C   0  0  0  0  0
    0.1450    1.2129    0.0080 C   0  0  0  0  0
   -1.2549    1.2129    0.0078 C   0  0  0  0  0
   -2.0068   -2.5156   -0.0084 C   0  0  0  0  0
    2.5410    0.9824    0.0104 H   0  0  0  0  0
    0.6873   -2.1504    0.0078 H   0  0  0  0  0
    0.6868    2.1514    0.0144 H   0  0  0  0  0
   -1.7969    2.1514    0.0078 H   0  0  0  0  0
   -1.7427   -3.0879   -0.8928 H   0  0  0  0  0
   -1.7441   -3.0879    0.8887 H   0  0  0  0  0
   -3.0791   -2.3164   -0.0112 H   0  0  0  0  0
  1  4  2  0  0  0
  2  4  2  0  0  0
  3  5  1  0  0  0
  3 12  1  0  0  0
  4  6  1  0  0  0
  5  8  1  0  0  0
  5  9  2  0  0  0
  6  7  1  0  0  0
  6 10  2  0  0  0
  7  8  2  0  0  0
  7 11  1  0  0  0
  8 13  1  0  0  0
  9 10  1  0  0  0
  9 14  1  0  0  0
 10 15  1  0  0  0
 11 16  1  0  0  0
 11 17  1  0  0  0
 11 18  1  0  0  0
M  END
> <EXTREG>
3-methyl-4-nitrophenol

> <# Confs.>
1

> <LIC50>
1.729

> <Name>
3-methyl-4-nitrophenol

$$$$
  2-chloromethyl-4-nitrophenol
XX    ILIB04271811163D

 18 18  0  0  1  0              1 V2000
    2.6348   -2.1914    0.0112 Cl  0  0  0  0  0
   -3.8975   -1.0557   -0.0112 O   0  0  0  0  0
   -3.8975    1.0571   -0.0080 O   0  0  0  0  0
    2.2041    0.0080    0.0080 O   0  0  0  0  0
   -3.2871    0.0112   -0.0080 N   0  2  0  0  0
    0.8450    0.0080    0.0080 C   0  0  0  0  0
   -1.9546    0.0080   -0.0080 C   0  0  0  0  0
    0.1450   -1.2114    0.0078 C   0  0  0  0  0
    0.1450    1.2129    0.0080 C   0  0  0  0  0
   -1.2549   -1.2129   -0.0080 C   0  0  0  0  0
   -1.2549    1.2129    0.0078 C   0  0  0  0  0
    0.8979   -2.5146    0.0078 C   0  0  0  0  0
    2.5410    0.9824    0.0104 H   0  0  0  0  0
    0.6868    2.1514    0.0144 H   0  0  0  0  0
   -1.7964   -2.1514   -0.0144 H   0  0  0  0  0
   -1.7969    2.1514    0.0078 H   0  0  0  0  0
    0.6338   -3.0869    0.8904 H   0  0  0  0  0
    0.6350   -3.0859   -0.8911 H   0  0  0  0  0
  1 12  1  0  0  0
  2  5  2  0  0  0
  3  5  2  0  0  0
  4  6  1  0  0  0
  4 13  1  0  0  0
  5  7  1  0  0  0
  6  8  1  0  0  0
  6  9  2  0  0  0
  7 10  1  0  0  0
  7 11  2  0  0  0
  8 10  2  0  0  0
  8 12  1  0  0  0
  9 11  1  0  0  0
  9 14  1  0  0  0
 10 15  1  0  0  0
 11 16  1  0  0  0
 12 17  1  0  0  0
 12 18  1  0  0  0
M  END
> <EXTREG>
2-chloromethyl-4-nitrophenol

> <# Confs.>
1

> <LIC50>
0.75

> <Name>
2-chloromethyl-4-nitrophenol

$$$$
  2-6-diiodo-4-nitrophenol
XX    ILIB04271811163D

 15 15  0  0  1  0              1 V2000
    1.1704   -2.9863    0.0078 I   0  0  0  0  0
    1.1699    2.9883    0.0100 I   0  0  0  0  0
   -3.8975   -1.0557   -0.0112 O   0  0  0  0  0
   -3.8975    1.0571   -0.0080 O   0  0  0  0  0
    2.2041    0.0080    0.0080 O   0  0  0  0  0
   -3.2871    0.0112   -0.0080 N   0  2  0  0  0
    0.1450   -1.2114    0.0078 C   0  0  0  0  0
    0.1450    1.2129    0.0080 C   0  0  0  0  0
    0.8450    0.0080    0.0080 C   0  0  0  0  0
   -1.9546    0.0080   -0.0080 C   0  0  0  0  0
   -1.2549   -1.2129   -0.0080 C   0  0  0  0  0
   -1.2549    1.2129    0.0078 C   0  0  0  0  0
    2.5410    0.9824    0.0104 H   0  0  0  0  0
   -1.7964   -2.1514   -0.0144 H   0  0  0  0  0
   -1.7969    2.1514    0.0078 H   0  0  0  0  0
  1  7  1  0  0  0
  2  8  1  0  0  0
  3  6  2  0  0  0
  4  6  2  0  0  0
  5  9  1  0  0  0
  5 13  1  0  0  0
  6 10  1  0  0  0
  7  9  1  0  0  0
  7 11  2  0  0  0
  8  9  2  0  0  0
  8 12  1  0  0  0
 10 11  1  0  0  0
 10 12  2  0  0  0
 11 14  1  0  0  0
 12 15  1  0  0  0
M  END
> <EXTREG>
2-6-diiodo-4-nitrophenol

> <# Confs.>
1

> <LIC50>
1.712

> <Name>
2-6-diiodo-4-nitrophenol

$$$$
  2-5-dinitrophenol
XX    ILIB04271811163D

 17 17  0  0  1  0              1 V2000
    0.2023   -3.4219   -0.0144 O   0  0  0  0  0
    2.0312   -2.3652    0.0144 O   0  0  0  0  0
   -3.1406    2.3672   -0.0144 O   0  0  0  0  0
   -1.3110    3.4238    0.0144 O   0  0  0  0  0
    2.2041    0.0080    0.0080 O   0  0  0  0  0
    0.8118   -2.3652    0.0078 N   0  2  0  0  0
   -1.9214    2.3672    0.0078 N   0  2  0  0  0
    0.8450    0.0080    0.0080 C   0  0  0  0  0
    0.1450   -1.2114    0.0078 C   0  0  0  0  0
   -1.2549    1.2129    0.0078 C   0  0  0  0  0
    0.1450    1.2129    0.0080 C   0  0  0  0  0
   -1.2549   -1.2129   -0.0080 C   0  0  0  0  0
   -1.9546    0.0080   -0.0080 C   0  0  0  0  0
    2.5410    0.9824    0.0104 H   0  0  0  0  0
    0.6868    2.1514    0.0144 H   0  0  0  0  0
   -1.7964   -2.1514   -0.0144 H   0  0  0  0  0
   -3.0381    0.0112   -0.0144 H   0  0  0  0  0
  1  6  2  0  0  0
  2  6  2  0  0  0
  3  7  2  0  0  0
  4  7  2  0  0  0
  5  8  1  0  0  0
  5 14  1  0  0  0
  6  9  1  0  0  0
  7 10  1  0  0  0
  8  9  1  0  0  0
  8 11  2  0  0  0
  9 12  2  0  0  0
 10 11  1  0  0  0
 10 13  2  0  0  0
 11 15  1  0  0  0
 12 13  1  0  0  0
 12 16  1  0  0  0
 13 17  1  0  0  0
M  END
> <EXTREG>
2-5-dinitrophenol

> <# Confs.>
1

> <LIC50>
0.95

> <Name>
2-5-dinitrophenol

$$$$
  5-hydroxy-2-nitrobenzaldehyde
XX    ILIB04271811163D

 17 17  0  0  1  0              1 V2000
   -3.8975   -1.0557   -0.0112 O   0  0  0  0  0
   -3.8975    1.0571   -0.0080 O   0  0  0  0  0
    2.2041    0.0080    0.0080 O   0  0  0  0  0
   -1.3823    3.5381    0.0144 O   0  0  0  0  0
   -3.2871    0.0112   -0.0080 N   0  2  0  0  0
    0.8450    0.0080    0.0080 C   0  0  0  0  0
   -1.9546    0.0080   -0.0080 C   0  0  0  0  0
   -1.2549    1.2129    0.0078 C   0  0  0  0  0
    0.1450    1.2129    0.0080 C   0  0  0  0  0
    0.1450   -1.2114    0.0078 C   0  0  0  0  0
   -1.2549   -1.2129   -0.0080 C   0  0  0  0  0
   -1.9897    2.4854    0.0078 C   0  0  0  0  0
    2.5410    0.9824    0.0104 H   0  0  0  0  0
    0.6868    2.1514    0.0144 H   0  0  0  0  0
    0.6873   -2.1504    0.0078 H   0  0  0  0  0
   -1.7964   -2.1514   -0.0144 H   0  0  0  0  0
   -3.0801    2.4854   -0.0128 H   0  0  0  0  0
  1  5  2  0  0  0
  2  5  2  0  0  0
  3  6  1  0  0  0
  3 13  1  0  0  0
  4 12  2  0  0  0
  5  7  1  0  0  0
  6  9  2  0  0  0
  6 10  1  0  0  0
  7  8  2  0  0  0
  7 11  1  0  0  0
  8  9  1  0  0  0
  8 12  1  0  0  0
  9 14  1  0  0  0
 10 11  2  0  0  0
 10 15  1  0  0  0
 11 16  1  0  0  0
 12 17  1  0  0  0
M  END
> <EXTREG>
5-hydroxy-2-nitrobenzaldehyde

> <# Confs.>
1

> <LIC50>
0.33

> <Name>
5-hydroxy-2-nitrobenzaldehyde

$$$$
  5-fluoro-2-nitrophenol
XX    ILIB04271811163D

 15 15  0  0  1  0              1 V2000
   -1.9189    2.3623    0.0078 F   0  0  0  0  0
    0.2023   -3.4219   -0.0144 O   0  0  0  0  0
    2.0312   -2.3652    0.0144 O   0  0  0  0  0
    2.2041    0.0080    0.0080 O   0  0  0  0  0
    0.8118   -2.3652    0.0078 N   0  2  0  0  0
   -1.2549    1.2129    0.0078 C   0  0  0  0  0
    0.8450    0.0080    0.0080 C   0  0  0  0  0
    0.1450   -1.2114    0.0078 C   0  0  0  0  0
    0.1450    1.2129    0.0080 C   0  0  0  0  0
   -1.9546    0.0080   -0.0080 C   0  0  0  0  0
   -1.2549   -1.2129   -0.0080 C   0  0  0  0  0
    2.5410    0.9824    0.0104 H   0  0  0  0  0
    0.6868    2.1514    0.0144 H   0  0  0  0  0
   -3.0381    0.0112   -0.0144 H   0  0  0  0  0
   -1.7964   -2.1514   -0.0144 H   0  0  0  0  0
  1  6  1  0  0  0
  2  5  2  0  0  0
  3  5  2  0  0  0
  4  7  1  0  0  0
  4 12  1  0  0  0
  5  8  1  0  0  0
  6  9  1  0  0  0
  6 10  2  0  0  0
  7  8  1  0  0  0
  7  9  2  0  0  0
  8 11  2  0  0  0
  9 13  1  0  0  0
 10 11  1  0  0  0
 10 14  1  0  0  0
 11 15  1  0  0  0
M  END
> <EXTREG>
5-fluoro-2-nitrophenol

> <# Confs.>
1

> <LIC50>
1.125

> <Name>
5-fluoro-2-nitrophenol

$$$$
  2-4-dinitrophenol
XX    ILIB04271811163D

 17 17  0  0  1  0              1 V2000
    0.2023   -3.4219   -0.0144 O   0  0  0  0  0
    2.0312   -2.3652    0.0144 O   0  0  0  0  0
   -3.8975   -1.0557   -0.0112 O   0  0  0  0  0
   -3.8975    1.0571   -0.0080 O   0  0  0  0  0
    2.2041    0.0080    0.0080 O   0  0  0  0  0
    0.8118   -2.3652    0.0078 N   0  2  0  0  0
   -3.2871    0.0112   -0.0080 N   0  2  0  0  0
    0.8450    0.0080    0.0080 C   0  0  0  0  0
    0.1450   -1.2114    0.0078 C   0  0  0  0  0
   -1.9546    0.0080   -0.0080 C   0  0  0  0  0
    0.1450    1.2129    0.0080 C   0  0  0  0  0
   -1.2549   -1.2129   -0.0080 C   0  0  0  0  0
   -1.2549    1.2129    0.0078 C   0  0  0  0  0
    2.5410    0.9824    0.0104 H   0  0  0  0  0
    0.6868    2.1514    0.0144 H   0  0  0  0  0
   -1.7964   -2.1514   -0.0144 H   0  0  0  0  0
   -1.7969    2.1514    0.0078 H   0  0  0  0  0
  1  6  2  0  0  0
  2  6  2  0  0  0
  3  7  2  0  0  0
  4  7  2  0  0  0
  5  8  1  0  0  0
  5 14  1  0  0  0
  6  9  1  0  0  0
  7 10  1  0  0  0
  8  9  1  0  0  0
  8 11  2  0  0  0
  9 12  2  0  0  0
 10 12  1  0  0  0
 10 13  2  0  0  0
 11 13  1  0  0  0
 11 15  1  0  0  0
 12 16  1  0  0  0
 13 17  1  0  0  0
M  END
> <EXTREG>
2-4-dinitrophenol

> <# Confs.>
1

> <LIC50>
1.077

> <Name>
2-4-dinitrophenol

$$$$
  4-6-dinitro-2-methylphenol
XX    ILIB04271811163D

 20 20  0  0  1  0              1 V2000
    2.0312    2.3672    0.0112 O   0  0  0  0  0
    0.2015    3.4238    0.0080 O   0  0  0  0  0
   -3.8975   -1.0557   -0.0112 O   0  0  0  0  0
   -3.8975    1.0571   -0.0080 O   0  0  0  0  0
    2.2041    0.0080    0.0080 O   0  0  0  0  0
    0.8113    2.3672    0.0080 N   0  2  0  0  0
   -3.2871    0.0112   -0.0080 N   0  2  0  0  0
    0.8450    0.0080    0.0080 C   0  0  0  0  0
    0.1450    1.2129    0.0080 C   0  0  0  0  0
   -1.9546    0.0080   -0.0080 C   0  0  0  0  0
    0.1450   -1.2114    0.0078 C   0  0  0  0  0
   -1.2549    1.2129    0.0078 C   0  0  0  0  0
   -1.2549   -1.2129   -0.0080 C   0  0  0  0  0
    0.8979   -2.5146    0.0078 C   0  0  0  0  0
    2.5410    0.9824    0.0104 H   0  0  0  0  0
   -1.7969    2.1514    0.0078 H   0  0  0  0  0
   -1.7964   -2.1514   -0.0144 H   0  0  0  0  0
    0.6338   -3.0869    0.8904 H   0  0  0  0  0
    0.6350   -3.0859   -0.8911 H   0  0  0  0  0
    1.9702   -2.3145    0.0128 H   0  0  0  0  0
  1  6  2  0  0  0
  2  6  2  0  0  0
  3  7  2  0  0  0
  4  7  2  0  0  0
  5  8  1  0  0  0
  5 15  1  0  0  0
  6  9  1  0  0  0
  7 10  1  0  0  0
  8  9  2  0  0  0
  8 11  1  0  0  0
  9 12  1  0  0  0
 10 12  2  0  0  0
 10 13  1  0  0  0
 11 13  2  0  0  0
 11 14  1  0  0  0
 12 16  1  0  0  0
 13 17  1  0  0  0
 14 18  1  0  0  0
 14 19  1  0  0  0
 14 20  1  0  0  0
M  END
> <EXTREG>
4-6-dinitro-2-methylphenol

> <# Confs.>
1

> <LIC50>
1.721

> <Name>
4-6-dinitro-2-methylphenol

$$$$
  2-6-dinitrophenol
XX    ILIB04271811163D

 17 17  0  0  1  0              1 V2000
    0.2023   -3.4219   -0.0144 O   0  0  0  0  0
    2.0312   -2.3652    0.0144 O   0  0  0  0  0
    2.0312    2.3672    0.0112 O   0  0  0  0  0
    0.2015    3.4238    0.0080 O   0  0  0  0  0
    2.2041    0.0080    0.0080 O   0  0  0  0  0
    0.8118   -2.3652    0.0078 N   0  2  0  0  0
    0.8113    2.3672    0.0080 N   0  2  0  0  0
    0.8450    0.0080    0.0080 C   0  0  0  0  0
    0.1450   -1.2114    0.0078 C   0  0  0  0  0
    0.1450    1.2129    0.0080 C   0  0  0  0  0
   -1.2549   -1.2129   -0.0080 C   0  0  0  0  0
   -1.2549    1.2129    0.0078 C   0  0  0  0  0
   -1.9546    0.0080   -0.0080 C   0  0  0  0  0
    2.5410    0.9824    0.0104 H   0  0  0  0  0
   -1.7964   -2.1514   -0.0144 H   0  0  0  0  0
   -1.7969    2.1514    0.0078 H   0  0  0  0  0
   -3.0381    0.0112   -0.0144 H   0  0  0  0  0
  1  6  2  0  0  0
  2  6  2  0  0  0
  3  7  2  0  0  0
  4  7  2  0  0  0
  5  8  1  0  0  0
  5 14  1  0  0  0
  6  9  1  0  0  0
  7 10  1  0  0  0
  8  9  1  0  0  0
  8 10  2  0  0  0
  9 11  2  0  0  0
 10 12  1  0  0  0
 11 13  1  0  0  0
 11 15  1  0  0  0
 12 13  2  0  0  0
 12 16  1  0  0  0
 13 17  1  0  0  0
M  END
> <EXTREG>
2-6-dinitrophenol

> <# Confs.>
1

> <LIC50>
0.539

> <Name>
2-6-dinitrophenol

$$$$
  3-4-dinitrophenol
XX    ILIB04271811163D

 17 17  0  0  1  0              1 V2000
   -1.3110   -3.4238   -0.0080 O   0  0  0  0  0
   -3.1406   -2.3672   -0.0112 O   0  0  0  0  0
   -3.8975   -1.0557   -0.0112 O   0  0  0  0  0
   -3.8975    1.0571   -0.0080 O   0  0  0  0  0
    2.2041    0.0080    0.0080 O   0  0  0  0  0
   -1.9209   -2.3672   -0.0080 N   0  2  0  0  0
   -3.2871    0.0112   -0.0080 N   0  2  0  0  0
    0.8450    0.0080    0.0080 C   0  0  0  0  0
   -1.2549   -1.2129   -0.0080 C   0  0  0  0  0
   -1.9546    0.0080   -0.0080 C   0  0  0  0  0
    0.1450   -1.2114    0.0078 C   0  0  0  0  0
    0.1450    1.2129    0.0080 C   0  0  0  0  0
   -1.2549    1.2129    0.0078 C   0  0  0  0  0
    2.5410    0.9824    0.0104 H   0  0  0  0  0
    0.6873   -2.1504    0.0078 H   0  0  0  0  0
    0.6868    2.1514    0.0144 H   0  0  0  0  0
   -1.7969    2.1514    0.0078 H   0  0  0  0  0
  1  6  2  0  0  0
  2  6  2  0  0  0
  3  7  2  0  0  0
  4  7  2  0  0  0
  5  8  1  0  0  0
  5 14  1  0  0  0
  6  9  1  0  0  0
  7 10  1  0  0  0
  8 11  1  0  0  0
  8 12  2  0  0  0
  9 10  1  0  0  0
  9 11  2  0  0  0
 10 13  2  0  0  0
 11 15  1  0  0  0
 12 13  1  0  0  0
 12 16  1  0  0  0
 13 17  1  0  0  0
M  END
> <EXTREG>
3-4-dinitrophenol

> <# Confs.>
1

> <LIC50>
0.266

> <Name>
3-4-dinitrophenol

$$$$
  2-4-dichloro-6-nitrophenol
XX    ILIB04271811163D

 15 15  0  0  1  0              1 V2000
    0.9954   -2.6836    0.0078 Cl  0  0  0  0  0
   -3.6543    0.0128   -0.0088 Cl  0  0  0  0  0
    2.0312    2.3672    0.0112 O   0  0  0  0  0
    0.2015    3.4238    0.0080 O   0  0  0  0  0
    2.2041    0.0080    0.0080 O   0  0  0  0  0
    0.8113    2.3672    0.0080 N   0  2  0  0  0
    0.1450   -1.2114    0.0078 C   0  0  0  0  0
   -1.9546    0.0080   -0.0080 C   0  0  0  0  0
    0.8450    0.0080    0.0080 C   0  0  0  0  0
    0.1450    1.2129    0.0080 C   0  0  0  0  0
   -1.2549   -1.2129   -0.0080 C   0  0  0  0  0
   -1.2549    1.2129    0.0078 C   0  0  0  0  0
    2.5410    0.9824    0.0104 H   0  0  0  0  0
   -1.7964   -2.1514   -0.0144 H   0  0  0  0  0
   -1.7969    2.1514    0.0078 H   0  0  0  0  0
  1  7  1  0  0  0
  2  8  1  0  0  0
  3  6  2  0  0  0
  4  6  2  0  0  0
  5  9  1  0  0  0
  5 13  1  0  0  0
  6 10  1  0  0  0
  7  9  1  0  0  0
  7 11  2  0  0  0
  8 11  1  0  0  0
  8 12  2  0  0  0
  9 10  2  0  0  0
 10 12  1  0  0  0
 11 14  1  0  0  0
 12 15  1  0  0  0
M  END
> <EXTREG>
2-4-dichloro-6-nitrophenol

> <# Confs.>
1

> <LIC50>
1.745

> <Name>
2-4-dichloro-6-nitrophenol

$$$$
  2-6-dinitro-4-methylphenol
XX    ILIB04271811163D

 20 20  0  0  1  0              1 V2000
    0.2023   -3.4219   -0.0144 O   0  0  0  0  0
    2.0312   -2.3652    0.0144 O   0  0  0  0  0
    2.0312    2.3672    0.0112 O   0  0  0  0  0
    0.2015    3.4238    0.0080 O   0  0  0  0  0
    2.2041    0.0080    0.0080 O   0  0  0  0  0
    0.8118   -2.3652    0.0078 N   0  2  0  0  0
    0.8113    2.3672    0.0080 N   0  2  0  0  0
    0.8450    0.0080    0.0080 C   0  0  0  0  0
    0.1450   -1.2114    0.0078 C   0  0  0  0  0
    0.1450    1.2129    0.0080 C   0  0  0  0  0
   -1.9546    0.0080   -0.0080 C   0  0  0  0  0
   -1.2549   -1.2129   -0.0080 C   0  0  0  0  0
   -1.2549    1.2129    0.0078 C   0  0  0  0  0
   -3.4600    0.0128   -0.0084 C   0  0  0  0  0
    2.5410    0.9824    0.0104 H   0  0  0  0  0
   -1.7964   -2.1514   -0.0144 H   0  0  0  0  0
   -1.7969    2.1514    0.0078 H   0  0  0  0  0
   -3.8223   -0.5129   -0.8931 H   0  0  0  0  0
   -3.8242   -0.5137    0.8882 H   0  0  0  0  0
   -3.8232    1.0293   -0.0152 H   0  0  0  0  0
  1  6  2  0  0  0
  2  6  2  0  0  0
  3  7  2  0  0  0
  4  7  2  0  0  0
  5  8  1  0  0  0
  5 15  1  0  0  0
  6  9  1  0  0  0
  7 10  1  0  0  0
  8  9  1  0  0  0
  8 10  2  0  0  0
  9 12  2  0  0  0
 10 13  1  0  0  0
 11 12  1  0  0  0
 11 13  2  0  0  0
 11 14  1  0  0  0
 12 16  1  0  0  0
 13 17  1  0  0  0
 14 18  1  0  0  0
 14 19  1  0  0  0
 14 20  1  0  0  0
M  END
> <EXTREG>
2-6-dinitro-4-methylphenol

> <# Confs.>
1

> <LIC50>
1.229

> <Name>
2-6-dinitro-4-methylphenol

$$$$
  2-6-dichloro-4-nitrophenol
XX    ILIB04271811163D

 15 15  0  0  1  0              1 V2000
    0.9954   -2.6836    0.0078 Cl  0  0  0  0  0
    0.9949    2.6846    0.0088 Cl  0  0  0  0  0
   -3.8975   -1.0557   -0.0112 O   0  0  0  0  0
   -3.8975    1.0571   -0.0080 O   0  0  0  0  0
    2.2041    0.0080    0.0080 O   0  0  0  0  0
   -3.2871    0.0112   -0.0080 N   0  2  0  0  0
    0.1450   -1.2114    0.0078 C   0  0  0  0  0
    0.1450    1.2129    0.0080 C   0  0  0  0  0
    0.8450    0.0080    0.0080 C   0  0  0  0  0
   -1.9546    0.0080   -0.0080 C   0  0  0  0  0
   -1.2549   -1.2129   -0.0080 C   0  0  0  0  0
   -1.2549    1.2129    0.0078 C   0  0  0  0  0
    2.5410    0.9824    0.0104 H   0  0  0  0  0
   -1.7964   -2.1514   -0.0144 H   0  0  0  0  0
   -1.7969    2.1514    0.0078 H   0  0  0  0  0
  1  7  1  0  0  0
  2  8  1  0  0  0
  3  6  2  0  0  0
  4  6  2  0  0  0
  5  9  1  0  0  0
  5 13  1  0  0  0
  6 10  1  0  0  0
  7  9  1  0  0  0
  7 11  2  0  0  0
  8  9  2  0  0  0
  8 12  1  0  0  0
 10 11  1  0  0  0
 10 12  2  0  0  0
 11 14  1  0  0  0
 12 15  1  0  0  0
M  END
> <EXTREG>
2-6-dichloro-4-nitrophenol

> <# Confs.>
1

> <LIC50>
0.632

> <Name>
2-6-dichloro-4-nitrophenol

$$$$
  2-chloro-4-nitrophenol
XX    ILIB04271811163D

 15 15  0  0  1  0              1 V2000
    0.9954   -2.6836    0.0078 Cl  0  0  0  0  0
   -3.8975   -1.0557   -0.0112 O   0  0  0  0  0
   -3.8975    1.0571   -0.0080 O   0  0  0  0  0
    2.2041    0.0080    0.0080 O   0  0  0  0  0
   -3.2871    0.0112   -0.0080 N   0  2  0  0  0
    0.1450   -1.2114    0.0078 C   0  0  0  0  0
    0.8450    0.0080    0.0080 C   0  0  0  0  0
   -1.9546    0.0080   -0.0080 C   0  0  0  0  0
   -1.2549   -1.2129   -0.0080 C   0  0  0  0  0
    0.1450    1.2129    0.0080 C   0  0  0  0  0
   -1.2549    1.2129    0.0078 C   0  0  0  0  0
    2.5410    0.9824    0.0104 H   0  0  0  0  0
   -1.7964   -2.1514   -0.0144 H   0  0  0  0  0
    0.6868    2.1514    0.0144 H   0  0  0  0  0
   -1.7969    2.1514    0.0078 H   0  0  0  0  0
  1  6  1  0  0  0
  2  5  2  0  0  0
  3  5  2  0  0  0
  4  7  1  0  0  0
  4 12  1  0  0  0
  5  8  1  0  0  0
  6  7  1  0  0  0
  6  9  2  0  0  0
  7 10  2  0  0  0
  8  9  1  0  0  0
  8 11  2  0  0  0
  9 13  1  0  0  0
 10 11  1  0  0  0
 10 14  1  0  0  0
 11 15  1  0  0  0
M  END
> <EXTREG>
2-chloro-4-nitrophenol

> <# Confs.>
1

> <LIC50>
1.585

> <Name>
2-chloro-4-nitrophenol

$$$$
  3-acetamidophenol
XX    ILIB04271811163D

 20 20  0  0  1  0              1 V2000
    0.7913   -2.3955    0.0078 O   0  0  0  0  0
   -3.3799    2.2002   -0.0088 O   0  0  0  0  0
   -3.3213   -0.0112   -0.0080 N   0  0  0  0  0
    0.1111   -1.2178    0.0078 C   0  0  0  0  0
   -1.9888   -0.0116   -0.0080 C   0  0  0  0  0
   -1.2886   -1.2188   -0.0080 C   0  0  0  0  0
    0.8110   -0.0116    0.0080 C   0  0  0  0  0
   -1.2886    1.2065    0.0078 C   0  0  0  0  0
    0.1111    1.2065    0.0080 C   0  0  0  0  0
   -3.9873    1.1489   -0.0080 C   0  0  0  0  0
   -5.4980    1.1489   -0.0124 C   0  0  0  0  0
    1.8096   -2.1953    0.0128 H   0  0  0  0  0
   -3.8252   -0.8782   -0.0108 H   0  0  0  0  0
   -1.8306   -2.1572   -0.0144 H   0  0  0  0  0
    1.8950   -0.0116    0.0136 H   0  0  0  0  0
   -1.8306    2.1445    0.0078 H   0  0  0  0  0
    0.6531    2.1445    0.0136 H   0  0  0  0  0
   -5.8594    0.6353   -0.8943 H   0  0  0  0  0
   -5.8613    0.6345    0.8872 H   0  0  0  0  0
   -5.8613    2.1777   -0.0116 H   0  0  0  0  0
  1  4  1  0  0  0
  1 12  1  0  0  0
  2 10  2  0  0  0
  3  5  1  0  0  0
  3 10  1  0  0  0
  3 13  1  0  0  0
  4  6  2  0  0  0
  4  7  1  0  0  0
  5  6  1  0  0  0
  5  8  2  0  0  0
  6 14  1  0  0  0
  7  9  2  0  0  0
  7 15  1  0  0  0
  8  9  1  0  0  0
  8 16  1  0  0  0
  9 17  1  0  0  0
 10 11  1  0  0  0
 11 18  1  0  0  0
 11 19  1  0  0  0
 11 20  1  0  0  0
M  END
> <EXTREG>
3-acetamidophenol

> <# Confs.>
1

> <LIC50>
-0.155

> <Name>
3-acetamidophenol

$$$$
  2-3-dinitrophenol
XX    ILIB04271811163D

 17 17  0  0  1  0              1 V2000
    0.2023   -3.4219   -0.0144 O   0  0  0  0  0
    2.0312   -2.3652    0.0144 O   0  0  0  0  0
   -1.3110   -3.4238   -0.0080 O   0  0  0  0  0
   -3.1406   -2.3672   -0.0112 O   0  0  0  0  0
    2.2041    0.0080    0.0080 O   0  0  0  0  0
    0.8118   -2.3652    0.0078 N   0  2  0  0  0
   -1.9209   -2.3672   -0.0080 N   0  2  0  0  0
    0.8450    0.0080    0.0080 C   0  0  0  0  0
    0.1450   -1.2114    0.0078 C   0  0  0  0  0
   -1.2549   -1.2129   -0.0080 C   0  0  0  0  0
    0.1450    1.2129    0.0080 C   0  0  0  0  0
   -1.9546    0.0080   -0.0080 C   0  0  0  0  0
   -1.2549    1.2129    0.0078 C   0  0  0  0  0
    2.5410    0.9824    0.0104 H   0  0  0  0  0
    0.6868    2.1514    0.0144 H   0  0  0  0  0
   -3.0381    0.0112   -0.0144 H   0  0  0  0  0
   -1.7969    2.1514    0.0078 H   0  0  0  0  0
  1  6  2  0  0  0
  2  6  2  0  0  0
  3  7  2  0  0  0
  4  7  2  0  0  0
  5  8  1  0  0  0
  5 14  1  0  0  0
  6  9  1  0  0  0
  7 10  1  0  0  0
  8  9  1  0  0  0
  8 11  2  0  0  0
  9 10  2  0  0  0
 10 12  1  0  0  0
 11 13  1  0  0  0
 11 15  1  0  0  0
 12 13  2  0  0  0
 12 16  1  0  0  0
 13 17  1  0  0  0
M  END
> <EXTREG>
2-3-dinitrophenol

> <# Confs.>
1

> <LIC50>
0.463

> <Name>
2-3-dinitrophenol

$$$$
  4-chloro-6-nitro-3-methylphenol
XX    ILIB04271811163D

 18 18  0  0  1  0              1 V2000
   -3.6543    0.0128   -0.0088 Cl  0  0  0  0  0
    2.0312    2.3672    0.0112 O   0  0  0  0  0
    0.2015    3.4238    0.0080 O   0  0  0  0  0
    2.2041    0.0080    0.0080 O   0  0  0  0  0
    0.8113    2.3672    0.0080 N   0  2  0  0  0
   -1.9546    0.0080   -0.0080 C   0  0  0  0  0
    0.8450    0.0080    0.0080 C   0  0  0  0  0
    0.1450    1.2129    0.0080 C   0  0  0  0  0
   -1.2549   -1.2129   -0.0080 C   0  0  0  0  0
   -1.2549    1.2129    0.0078 C   0  0  0  0  0
    0.1450   -1.2114    0.0078 C   0  0  0  0  0
   -2.0068   -2.5156   -0.0084 C   0  0  0  0  0
    2.5410    0.9824    0.0104 H   0  0  0  0  0
   -1.7969    2.1514    0.0078 H   0  0  0  0  0
    0.6873   -2.1504    0.0078 H   0  0  0  0  0
   -1.7427   -3.0879   -0.8928 H   0  0  0  0  0
   -1.7441   -3.0879    0.8887 H   0  0  0  0  0
   -3.0791   -2.3164   -0.0112 H   0  0  0  0  0
  1  6  1  0  0  0
  2  5  2  0  0  0
  3  5  2  0  0  0
  4  7  1  0  0  0
  4 13  1  0  0  0
  5  8  1  0  0  0
  6  9  1  0  0  0
  6 10  2  0  0  0
  7  8  2  0  0  0
  7 11  1  0  0  0
  8 10  1  0  0  0
  9 11  2  0  0  0
  9 12  1  0  0  0
 10 14  1  0  0  0
 11 15  1  0  0  0
 12 16  1  0  0  0
 12 17  1  0  0  0
 12 18  1  0  0  0
M  END
> <EXTREG>
4-chloro-6-nitro-3-methylphenol

> <# Confs.>
1

> <LIC50>
1.638

> <Name>
4-chloro-6-nitro-3-methylphenol

$$$$
  2-4-6-trinitrophenol
XX    ILIB04271811163D

 19 19  0  0  1  0              1 V2000
    0.2023   -3.4219   -0.0144 O   0  0  0  0  0
    2.0312   -2.3652    0.0144 O   0  0  0  0  0
    2.0312    2.3672    0.0112 O   0  0  0  0  0
    0.2015    3.4238    0.0080 O   0  0  0  0  0
   -3.8975   -1.0557   -0.0112 O   0  0  0  0  0
   -3.8975    1.0571   -0.0080 O   0  0  0  0  0
    2.2041    0.0080    0.0080 O   0  0  0  0  0
    0.8118   -2.3652    0.0078 N   0  2  0  0  0
    0.8113    2.3672    0.0080 N   0  2  0  0  0
   -3.2871    0.0112   -0.0080 N   0  2  0  0  0
    0.8450    0.0080    0.0080 C   0  0  0  0  0
    0.1450   -1.2114    0.0078 C   0  0  0  0  0
    0.1450    1.2129    0.0080 C   0  0  0  0  0
   -1.9546    0.0080   -0.0080 C   0  0  0  0  0
   -1.2549   -1.2129   -0.0080 C   0  0  0  0  0
   -1.2549    1.2129    0.0078 C   0  0  0  0  0
    2.5410    0.9824    0.0104 H   0  0  0  0  0
   -1.7964   -2.1514   -0.0144 H   0  0  0  0  0
   -1.7969    2.1514    0.0078 H   0  0  0  0  0
  1  8  2  0  0  0
  2  8  2  0  0  0
  3  9  2  0  0  0
  4  9  2  0  0  0
  5 10  2  0  0  0
  6 10  2  0  0  0
  7 11  1  0  0  0
  7 17  1  0  0  0
  8 12  1  0  0  0
  9 13  1  0  0  0
 10 14  1  0  0  0
 11 12  1  0  0  0
 11 13  2  0  0  0
 12 15  2  0  0  0
 13 16  1  0  0  0
 14 15  1  0  0  0
 14 16  2  0  0  0
 15 18  1  0  0  0
 16 19  1  0  0  0
M  END
> <EXTREG>
2-4-6-trinitrophenol

> <# Confs.>
1

> <LIC50>
-0.155

> <Name>
2-4-6-trinitrophenol

$$$$
  4-chloro-2-nitrophenol
XX    ILIB04271811163D

 15 15  0  0  1  0              1 V2000
   -3.6543    0.0128   -0.0088 Cl  0  0  0  0  0
    0.2023   -3.4219   -0.0144 O   0  0  0  0  0
    2.0312   -2.3652    0.0144 O   0  0  0  0  0
    2.2041    0.0080    0.0080 O   0  0  0  0  0
    0.8118   -2.3652    0.0078 N   0  2  0  0  0
   -1.9546    0.0080   -0.0080 C   0  0  0  0  0
    0.8450    0.0080    0.0080 C   0  0  0  0  0
    0.1450   -1.2114    0.0078 C   0  0  0  0  0
   -1.2549   -1.2129   -0.0080 C   0  0  0  0  0
   -1.2549    1.2129    0.0078 C   0  0  0  0  0
    0.1450    1.2129    0.0080 C   0  0  0  0  0
    2.5410    0.9824    0.0104 H   0  0  0  0  0
   -1.7964   -2.1514   -0.0144 H   0  0  0  0  0
   -1.7969    2.1514    0.0078 H   0  0  0  0  0
    0.6868    2.1514    0.0144 H   0  0  0  0  0
  1  6  1  0  0  0
  2  5  2  0  0  0
  3  5  2  0  0  0
  4  7  1  0  0  0
  4 12  1  0  0  0
  5  8  1  0  0  0
  6  9  1  0  0  0
  6 10  2  0  0  0
  7  8  1  0  0  0
  7 11  2  0  0  0
  8  9  2  0  0  0
  9 13  1  0  0  0
 10 11  1  0  0  0
 10 14  1  0  0  0
 11 15  1  0  0  0
M  END
> <EXTREG>
4-chloro-2-nitrophenol

> <# Confs.>
1

> <LIC50>
2.053

> <Name>
4-chloro-2-nitrophenol

$$$$
  slicylhydroxamic_acid
XX    ILIB04271811163D

 18 18  0  0  1  0              1 V2000
    0.7454   -4.5586   -0.0080 O   0  0  0  0  0
    2.2041    0.0080    0.0080 O   0  0  0  0  0
    2.0947   -2.4834    0.0144 O   0  0  0  0  0
    0.2144   -3.6387   -0.0080 N   0  0  0  0  0
    0.8450    0.0080    0.0080 C   0  0  0  0  0
    0.1450   -1.2114    0.0078 C   0  0  0  0  0
    0.1450    1.2129    0.0080 C   0  0  0  0  0
   -1.2549   -1.2129   -0.0080 C   0  0  0  0  0
   -1.2549    1.2129    0.0078 C   0  0  0  0  0
   -1.9546    0.0080   -0.0080 C   0  0  0  0  0
    0.8804   -2.4844    0.0078 C   0  0  0  0  0
    0.0635   -5.3398   -0.0144 H   0  0  0  0  0
    2.5410    0.9824    0.0104 H   0  0  0  0  0
   -0.7935   -3.6396   -0.0136 H   0  0  0  0  0
    0.6868    2.1514    0.0144 H   0  0  0  0  0
   -1.7964   -2.1514   -0.0144 H   0  0  0  0  0
   -1.7969    2.1514    0.0078 H   0  0  0  0  0
   -3.0381    0.0112   -0.0144 H   0  0  0  0  0
  1  4  1  0  0  0
  1 12  1  0  0  0
  2  5  1  0  0  0
  2 13  1  0  0  0
  3 11  2  0  0  0
  4 11  1  0  0  0
  4 14  1  0  0  0
  5  6  1  0  0  0
  5  7  2  0  0  0
  6  8  2  0  0  0
  6 11  1  0  0  0
  7  9  1  0  0  0
  7 15  1  0  0  0
  8 10  1  0  0  0
  8 16  1  0  0  0
  9 10  2  0  0  0
  9 17  1  0  0  0
 10 18  1  0  0  0
M  END
> <EXTREG>
slicylhydroxamic_acid

> <# Confs.>
1

> <LIC50>
0.379

> <Name>
slicylhydroxamic_acid

$$$$
  salicylhydrazide
XX    ILIB04271811163D

 20 20  0  0  1  0              1 V2000
    2.2041    0.0080    0.0080 O   0  0  0  0  0
    2.3369   -2.2080    0.0096 N   0  0  0  0  0
    3.1631   -3.4014    0.0104 N   0  0  0  0  0
    0.8450    0.0080    0.0080 C   0  0  0  0  0
    0.1450   -1.2114    0.0078 C   0  0  0  0  0
    0.1450    1.2129    0.0080 C   0  0  0  0  0
   -1.2549   -1.2129   -0.0080 C   0  0  0  0  0
   -1.2549    1.2129    0.0078 C   0  0  0  0  0
   -1.9546    0.0080   -0.0080 C   0  0  0  0  0
    0.8979   -2.5146    0.0078 C   0  0  0  0  0
    2.5410    0.9824    0.0104 H   0  0  0  0  0
    2.5518   -1.6675    0.8245 H   0  0  0  0  0
    2.9639   -3.9473   -0.8220 H   0  0  0  0  0
    4.1348   -3.1367    0.0084 H   0  0  0  0  0
    0.6868    2.1514    0.0144 H   0  0  0  0  0
   -1.7964   -2.1514   -0.0144 H   0  0  0  0  0
   -1.7969    2.1514    0.0078 H   0  0  0  0  0
   -3.0381    0.0112   -0.0144 H   0  0  0  0  0
    0.6353   -3.1045    0.8794 H   0  0  0  0  0
    0.6426   -3.0898   -0.8911 H   0  0  0  0  0
  1  4  1  0  0  0
  1 11  1  0  0  0
  2  3  1  0  0  0
  2 10  1  0  0  0
  2 12  1  0  0  0
  3 13  1  0  0  0
  3 14  1  0  0  0
  4  5  1  0  0  0
  4  6  2  0  0  0
  5  7  2  0  0  0
  5 10  1  0  0  0
  6  8  1  0  0  0
  6 15  1  0  0  0
  7  9  1  0  0  0
  7 16  1  0  0  0
  8  9  2  0  0  0
  8 17  1  0  0  0
  9 18  1  0  0  0
 10 19  1  0  0  0
 10 20  1  0  0  0
M  END
> <EXTREG>
salicylhydrazide

> <# Confs.>
1

> <LIC50>
0.181

> <Name>
salicylhydrazide

$$$$
  salicylaldoxime
XX    ILIB04271811163D

 17 17  0  0  1  0              1 V2000
    2.6133   -3.2861    0.0144 O   0  0  0  0  0
    2.2041    0.0080    0.0080 O   0  0  0  0  0
    2.0820   -2.3672    0.0144 N   0  0  0  0  0
    0.8450    0.0080    0.0080 C   0  0  0  0  0
    0.1450   -1.2114    0.0078 C   0  0  0  0  0
    0.1450    1.2129    0.0080 C   0  0  0  0  0
   -1.2549   -1.2129   -0.0080 C   0  0  0  0  0
   -1.2549    1.2129    0.0078 C   0  0  0  0  0
   -1.9546    0.0080   -0.0080 C   0  0  0  0  0
    0.8127   -2.3672    0.0078 C   0  0  0  0  0
    3.6318   -3.0859    0.0136 H   0  0  0  0  0
    2.5410    0.9824    0.0104 H   0  0  0  0  0
    0.6868    2.1514    0.0144 H   0  0  0  0  0
   -1.7964   -2.1514   -0.0144 H   0  0  0  0  0
   -1.7969    2.1514    0.0078 H   0  0  0  0  0
   -3.0381    0.0112   -0.0144 H   0  0  0  0  0
    0.2676   -3.3125   -0.0128 H   0  0  0  0  0
  1  3  1  0  0  0
  1 11  1  0  0  0
  2  4  1  0  0  0
  2 12  1  0  0  0
  3 10  2  0  0  0
  4  5  1  0  0  0
  4  6  2  0  0  0
  5  7  2  0  0  0
  5 10  1  0  0  0
  6  8  1  0  0  0
  6 13  1  0  0  0
  7  9  1  0  0  0
  7 14  1  0  0  0
  8  9  2  0  0  0
  8 15  1  0  0  0
  9 16  1  0  0  0
 10 17  1  0  0  0
M  END
> <EXTREG>
salicylaldoxime

> <# Confs.>
1

> <LIC50>
0.253

> <Name>
salicylaldoxime

$$$$
  2-6-dibromo-4-nitrophenol
XX    ILIB04271811163D

 15 15  0  0  1  0              1 V2000
    1.0703   -2.8135    0.0078 Br  0  0  0  0  0
    1.0698    2.8145    0.0092 Br  0  0  0  0  0
   -3.8975   -1.0557   -0.0112 O   0  0  0  0  0
   -3.8975    1.0571   -0.0080 O   0  0  0  0  0
    2.2041    0.0080    0.0080 O   0  0  0  0  0
   -3.2871    0.0112   -0.0080 N   0  2  0  0  0
    0.1450   -1.2114    0.0078 C   0  0  0  0  0
    0.1450    1.2129    0.0080 C   0  0  0  0  0
    0.8450    0.0080    0.0080 C   0  0  0  0  0
   -1.9546    0.0080   -0.0080 C   0  0  0  0  0
   -1.2549   -1.2129   -0.0080 C   0  0  0  0  0
   -1.2549    1.2129    0.0078 C   0  0  0  0  0
    2.5410    0.9824    0.0104 H   0  0  0  0  0
   -1.7964   -2.1514   -0.0144 H   0  0  0  0  0
   -1.7969    2.1514    0.0078 H   0  0  0  0  0
  1  7  1  0  0  0
  2  8  1  0  0  0
  3  6  2  0  0  0
  4  6  2  0  0  0
  5  9  1  0  0  0
  5 13  1  0  0  0
  6 10  1  0  0  0
  7  9  1  0  0  0
  7 11  2  0  0  0
  8  9  2  0  0  0
  8 12  1  0  0  0
 10 11  1  0  0  0
 10 12  2  0  0  0
 11 14  1  0  0  0
 12 15  1  0  0  0
M  END
> <EXTREG>
2-6-dibromo-4-nitrophenol

> <# Confs.>
1

> <LIC50>
1.356

> <Name>
2-6-dibromo-4-nitrophenol

$$$$
  2-aminonitrobenzene
XX    ILIB04271811163D

 16 16  0  0  1  0              1 V2000
   -3.8975   -1.0557   -0.0112 O   0  0  0  0  0
   -3.8975    1.0571   -0.0080 O   0  0  0  0  0
   -3.2871    0.0112   -0.0080 N   0  2  0  0  0
   -1.9209   -2.3672   -0.0080 N   0  0  0  0  0
   -1.9546    0.0080   -0.0080 C   0  0  0  0  0
   -1.2549   -1.2129   -0.0080 C   0  0  0  0  0
   -1.2549    1.2129    0.0078 C   0  0  0  0  0
    0.1450   -1.2114    0.0078 C   0  0  0  0  0
    0.1450    1.2129    0.0080 C   0  0  0  0  0
    0.8450    0.0080    0.0080 C   0  0  0  0  0
   -1.4170   -3.2402   -0.0080 H   0  0  0  0  0
   -2.9287   -2.3672   -0.0108 H   0  0  0  0  0
   -1.7969    2.1514    0.0078 H   0  0  0  0  0
    0.6873   -2.1504    0.0078 H   0  0  0  0  0
    0.6868    2.1514    0.0144 H   0  0  0  0  0
    1.9287    0.0080    0.0144 H   0  0  0  0  0
  1  3  2  0  0  0
  2  3  2  0  0  0
  3  5  1  0  0  0
  4  6  1  0  0  0
  4 11  1  0  0  0
  4 12  1  0  0  0
  5  6  1  0  0  0
  5  7  2  0  0  0
  6  8  2  0  0  0
  7  9  1  0  0  0
  7 13  1  0  0  0
  8 10  1  0  0  0
  8 14  1  0  0  0
  9 10  2  0  0  0
  9 15  1  0  0  0
 10 16  1  0  0  0
M  END
> <EXTREG>
2-aminonitrobenzene

> <# Confs.>
1

> <LIC50>
0.077

> <Name>
2-aminonitrobenzene

$$$$
  2-hydroxy-nitrobenzene
XX    ILIB04271811163D

 15 15  0  0  1  0              1 V2000
   -2.6533   -1.0557   -0.0112 O   0  0  0  0  0
   -2.6523    1.0571   -0.0080 O   0  0  0  0  0
   -0.6902   -2.3906   -0.0080 O   0  0  0  0  0
   -2.0430    0.0128   -0.0080 N   0  2  0  0  0
   -0.0104   -1.2129   -0.0080 C   0  0  0  0  0
   -0.7102    0.0096   -0.0080 C   0  0  0  0  0
    1.3892   -1.2114    0.0078 C   0  0  0  0  0
   -0.0104    1.2129    0.0078 C   0  0  0  0  0
    2.0889    0.0096    0.0080 C   0  0  0  0  0
    1.3892    1.2129    0.0080 C   0  0  0  0  0
   -1.7085   -2.1904   -0.0104 H   0  0  0  0  0
    1.9316   -2.1504    0.0078 H   0  0  0  0  0
   -0.5522    2.1514    0.0078 H   0  0  0  0  0
    3.1729    0.0080    0.0144 H   0  0  0  0  0
    1.9312    2.1514    0.0144 H   0  0  0  0  0
  1  4  2  0  0  0
  2  4  2  0  0  0
  3  5  1  0  0  0
  3 11  1  0  0  0
  4  6  1  0  0  0
  5  6  1  0  0  0
  5  7  2  0  0  0
  6  8  2  0  0  0
  7  9  1  0  0  0
  7 12  1  0  0  0
  8 10  1  0  0  0
  8 13  1  0  0  0
  9 10  2  0  0  0
  9 14  1  0  0  0
 10 15  1  0  0  0
M  END
> <EXTREG>
2-hydroxy-nitrobenzene

> <# Confs.>
1

> <LIC50>
0.77

> <Name>
2-hydroxy-nitrobenzene

$$$$
  2-methyl-nitrobenzene
XX    ILIB04271811163D

 17 17  0  0  1  0              1 V2000
   -2.4961   -1.0557   -0.0112 O   0  0  0  0  0
   -2.4961    1.0571   -0.0080 O   0  0  0  0  0
   -1.8862    0.0128   -0.0080 N   0  2  0  0  0
   -0.5532    0.0096   -0.0080 C   0  0  0  0  0
    0.1465   -1.2129   -0.0080 C   0  0  0  0  0
    0.1465    1.2129    0.0078 C   0  0  0  0  0
    1.5464   -1.2119    0.0078 C   0  0  0  0  0
    1.5464    1.2129    0.0080 C   0  0  0  0  0
    2.2461    0.0096    0.0080 C   0  0  0  0  0
   -0.6055   -2.5156   -0.0084 C   0  0  0  0  0
   -0.3954    2.1514    0.0078 H   0  0  0  0  0
    2.0889   -2.1504    0.0078 H   0  0  0  0  0
    2.0879    2.1514    0.0144 H   0  0  0  0  0
    3.3301    0.0096    0.0144 H   0  0  0  0  0
   -0.3413   -3.0879   -0.8928 H   0  0  0  0  0
   -0.3427   -3.0889    0.8887 H   0  0  0  0  0
   -1.6782   -2.3164   -0.0112 H   0  0  0  0  0
  1  3  2  0  0  0
  2  3  2  0  0  0
  3  4  1  0  0  0
  4  5  1  0  0  0
  4  6  2  0  0  0
  5  7  2  0  0  0
  5 10  1  0  0  0
  6  8  1  0  0  0
  6 11  1  0  0  0
  7  9  1  0  0  0
  7 12  1  0  0  0
  8  9  2  0  0  0
  8 13  1  0  0  0
  9 14  1  0  0  0
 10 15  1  0  0  0
 10 16  1  0  0  0
 10 17  1  0  0  0
M  END
> <EXTREG>
2-methyl-nitrobenzene

> <# Confs.>
1

> <LIC50>
0.479

> <Name>
2-methyl-nitrobenzene

$$$$
  2-nitro-toluol
XX    ILIB04271811163D

 18 18  0  0  1  0              1 V2000
   -2.4961   -1.0557   -0.0112 O   0  0  0  0  0
   -2.4961    1.0571   -0.0080 O   0  0  0  0  0
   -2.0068   -2.2559   -0.0120 O   0  0  0  0  0
   -1.8862    0.0128   -0.0080 N   0  2  0  0  0
   -0.5532    0.0096   -0.0080 C   0  0  0  0  0
    0.1465   -1.2129   -0.0080 C   0  0  0  0  0
    0.1465    1.2129    0.0078 C   0  0  0  0  0
    1.5464   -1.2119    0.0078 C   0  0  0  0  0
    1.5464    1.2129    0.0080 C   0  0  0  0  0
    2.2461    0.0096    0.0080 C   0  0  0  0  0
   -0.6055   -2.5156   -0.0084 C   0  0  0  0  0
   -2.5176   -3.1602   -0.0148 H   0  0  0  0  0
   -0.3954    2.1514    0.0078 H   0  0  0  0  0
    2.0889   -2.1504    0.0078 H   0  0  0  0  0
    2.0879    2.1514    0.0144 H   0  0  0  0  0
    3.3301    0.0096    0.0144 H   0  0  0  0  0
   -0.3413   -3.0879   -0.8928 H   0  0  0  0  0
   -0.3427   -3.0889    0.8887 H   0  0  0  0  0
  1  4  2  0  0  0
  2  4  2  0  0  0
  3 11  1  0  0  0
  3 12  1  0  0  0
  4  5  1  0  0  0
  5  6  1  0  0  0
  5  7  2  0  0  0
  6  8  2  0  0  0
  6 11  1  0  0  0
  7  9  1  0  0  0
  7 13  1  0  0  0
  8 10  1  0  0  0
  8 14  1  0  0  0
  9 10  2  0  0  0
  9 15  1  0  0  0
 10 16  1  0  0  0
 11 17  1  0  0  0
 11 18  1  0  0  0
M  END
> <EXTREG>
2-nitro-toluol

> <# Confs.>
1

> <LIC50>
-0.155

> <Name>
2-nitro-toluol

$$$$
  2-nitro-benzioc_acid
XX    ILIB04271811163D

 17 17  0  0  1  0              1 V2000
   -2.4961   -1.0557   -0.0112 O   0  0  0  0  0
   -2.4961    1.0571   -0.0080 O   0  0  0  0  0
    0.0195   -3.5381   -0.0080 O   0  0  0  0  0
   -2.0137   -2.4863   -0.0124 O   0  0  0  0  0
   -1.8862    0.0128   -0.0080 N   0  2  0  0  0
   -0.5532    0.0096   -0.0080 C   0  0  0  0  0
    0.1465   -1.2129   -0.0080 C   0  0  0  0  0
    0.1465    1.2129    0.0078 C   0  0  0  0  0
    1.5464   -1.2119    0.0078 C   0  0  0  0  0
    1.5464    1.2129    0.0080 C   0  0  0  0  0
    2.2461    0.0096    0.0080 C   0  0  0  0  0
   -0.5881   -2.4854   -0.0080 C   0  0  0  0  0
   -2.3496   -3.4678   -0.0148 H   0  0  0  0  0
   -0.3954    2.1514    0.0078 H   0  0  0  0  0
    2.0889   -2.1504    0.0078 H   0  0  0  0  0
    2.0879    2.1514    0.0144 H   0  0  0  0  0
    3.3301    0.0096    0.0144 H   0  0  0  0  0
  1  5  2  0  0  0
  2  5  2  0  0  0
  3 12  2  0  0  0
  4 12  1  0  0  0
  4 13  1  0  0  0
  5  6  1  0  0  0
  6  7  1  0  0  0
  6  8  2  0  0  0
  7  9  2  0  0  0
  7 12  1  0  0  0
  8 10  1  0  0  0
  8 14  1  0  0  0
  9 11  1  0  0  0
  9 15  1  0  0  0
 10 11  2  0  0  0
 10 16  1  0  0  0
 11 17  1  0  0  0
M  END
> <EXTREG>
2-nitro-benzioc_acid

> <# Confs.>
1

> <LIC50>
-1.637

> <Name>
2-nitro-benzioc_acid

$$$$
  2-phenyl-nitrobenzene
XX    ILIB04271811163D

 24 25  0  0  1  0              1 V2000
   -6.1660   -1.0557   -0.0096 O   0  0  0  0  0
   -6.1660    1.0571   -0.0128 O   0  0  0  0  0
   -5.5547    0.0128   -0.0128 N   0  2  0  0  0
   -4.2227    0.0096   -0.0096 C   0  0  0  0  0
   -3.5225   -1.2129   -0.0096 C   0  0  0  0  0
   -4.2227   -2.4248   -0.0120 C   0  0  0  0  0
   -3.5225    1.2129    0.0128 C   0  0  0  0  0
   -2.1230   -1.2119    0.0128 C   0  0  0  0  0
   -5.6230   -2.4248   -0.0100 C   0  0  0  0  0
   -3.5225   -3.6377   -0.0120 C   0  0  0  0  0
   -2.1230    1.2129    0.0112 C   0  0  0  0  0
   -1.4233    0.0096    0.0120 C   0  0  0  0  0
   -6.3223   -3.6387   -0.0140 C   0  0  0  0  0
   -4.2207   -4.8496   -0.0100 C   0  0  0  0  0
   -5.6211   -4.8496   -0.0144 C   0  0  0  0  0
   -4.0645    2.1514    0.0080 H   0  0  0  0  0
   -1.5811   -2.1504    0.0080 H   0  0  0  0  0
   -6.1660   -1.4868   -0.0104 H   0  0  0  0  0
   -2.4385   -3.6367   -0.0128 H   0  0  0  0  0
   -1.5811    2.1514    0.0088 H   0  0  0  0  0
   -0.3394    0.0096    0.0088 H   0  0  0  0  0
   -7.4062   -3.6387   -0.0086 H   0  0  0  0  0
   -3.6797   -5.7871   -0.0100 H   0  0  0  0  0
   -6.1621   -5.7891   -0.0086 H   0  0  0  0  0
  1  3  2  0  0  0
  2  3  2  0  0  0
  3  4  1  0  0  0
  4  5  1  0  0  0
  4  7  2  0  0  0
  5  6  1  0  0  0
  5  8  2  0  0  0
  6  9  1  0  0  0
  6 10  2  0  0  0
  7 11  1  0  0  0
  7 16  1  0  0  0
  8 12  1  0  0  0
  8 17  1  0  0  0
  9 13  2  0  0  0
  9 18  1  0  0  0
 10 14  1  0  0  0
 10 19  1  0  0  0
 11 12  2  0  0  0
 11 20  1  0  0  0
 12 21  1  0  0  0
 13 15  1  0  0  0
 13 22  1  0  0  0
 14 15  2  0  0  0
 14 23  1  0  0  0
 15 24  1  0  0  0
M  END
> <EXTREG>
2-phenyl-nitrobenzene

> <# Confs.>
1

> <LIC50>
1.301

> <Name>
2-phenyl-nitrobenzene

$$$$
  2-nitro-benzamide
XX    ILIB04271811163D

 18 18  0  0  1  0              1 V2000
   -2.4961   -1.0557   -0.0112 O   0  0  0  0  0
   -2.4961    1.0571   -0.0080 O   0  0  0  0  0
   -1.8027   -2.4854   -0.0116 O   0  0  0  0  0
   -1.8862    0.0128   -0.0080 N   0  2  0  0  0
    0.0785   -3.6396   -0.0080 N   0  0  0  0  0
   -0.5532    0.0096   -0.0080 C   0  0  0  0  0
    0.1465   -1.2129   -0.0080 C   0  0  0  0  0
    0.1465    1.2129    0.0078 C   0  0  0  0  0
    1.5464   -1.2119    0.0078 C   0  0  0  0  0
    1.5464    1.2129    0.0080 C   0  0  0  0  0
    2.2461    0.0096    0.0080 C   0  0  0  0  0
   -0.5881   -2.4854   -0.0080 C   0  0  0  0  0
    1.0864   -3.6396   -0.0104 H   0  0  0  0  0
   -0.4253   -4.5117   -0.0112 H   0  0  0  0  0
   -0.3954    2.1514    0.0078 H   0  0  0  0  0
    2.0889   -2.1504    0.0078 H   0  0  0  0  0
    2.0879    2.1514    0.0144 H   0  0  0  0  0
    3.3301    0.0096    0.0144 H   0  0  0  0  0
  1  4  2  0  0  0
  2  4  2  0  0  0
  3 12  2  0  0  0
  4  6  1  0  0  0
  5 12  1  0  0  0
  5 13  1  0  0  0
  5 14  1  0  0  0
  6  7  1  0  0  0
  6  8  2  0  0  0
  7  9  2  0  0  0
  7 12  1  0  0  0
  8 10  1  0  0  0
  8 15  1  0  0  0
  9 11  1  0  0  0
  9 16  1  0  0  0
 10 11  2  0  0  0
 10 17  1  0  0  0
 11 18  1  0  0  0
M  END
> <EXTREG>
2-nitro-benzamide

> <# Confs.>
1

> <LIC50>
-0.721

> <Name>
2-nitro-benzamide

$$$$
  2-nitro-benzaldehyde
XX    ILIB04271811163D

 16 16  0  0  1  0              1 V2000
   -2.4961   -1.0557   -0.0112 O   0  0  0  0  0
   -2.4961    1.0571   -0.0080 O   0  0  0  0  0
   -1.8027   -2.4854   -0.0116 O   0  0  0  0  0
   -1.8862    0.0128   -0.0080 N   0  2  0  0  0
   -0.5532    0.0096   -0.0080 C   0  0  0  0  0
    0.1465   -1.2129   -0.0080 C   0  0  0  0  0
    0.1465    1.2129    0.0078 C   0  0  0  0  0
    1.5464   -1.2119    0.0078 C   0  0  0  0  0
    1.5464    1.2129    0.0080 C   0  0  0  0  0
    2.2461    0.0096    0.0080 C   0  0  0  0  0
   -0.5881   -2.4854   -0.0080 C   0  0  0  0  0
   -0.3954    2.1514    0.0078 H   0  0  0  0  0
    2.0889   -2.1504    0.0078 H   0  0  0  0  0
    2.0879    2.1514    0.0144 H   0  0  0  0  0
    3.3301    0.0096    0.0144 H   0  0  0  0  0
   -0.0425   -3.4307   -0.0080 H   0  0  0  0  0
  1  4  2  0  0  0
  2  4  2  0  0  0
  3 11  2  0  0  0
  4  5  1  0  0  0
  5  6  1  0  0  0
  5  7  2  0  0  0
  6  8  2  0  0  0
  6 11  1  0  0  0
  7  9  1  0  0  0
  7 12  1  0  0  0
  8 10  1  0  0  0
  8 13  1  0  0  0
  9 10  2  0  0  0
  9 14  1  0  0  0
 10 15  1  0  0  0
 11 16  1  0  0  0
M  END
> <EXTREG>
2-nitro-benzaldehyde

> <# Confs.>
1

> <LIC50>
0.174

> <Name>
2-nitro-benzaldehyde

$$$$
  3-amino-nitrobenzene
XX    ILIB04271811163D

 16 16  0  0  1  0              1 V2000
   -2.4961   -1.0557   -0.0112 O   0  0  0  0  0
   -2.4961    1.0571   -0.0080 O   0  0  0  0  0
   -1.8862    0.0128   -0.0080 N   0  2  0  0  0
    2.2129   -2.3652    0.0078 N   0  0  0  0  0
   -0.5532    0.0096   -0.0080 C   0  0  0  0  0
    1.5464   -1.2119    0.0078 C   0  0  0  0  0
    0.1465   -1.2129   -0.0080 C   0  0  0  0  0
    0.1465    1.2129    0.0078 C   0  0  0  0  0
    2.2461    0.0096    0.0080 C   0  0  0  0  0
    1.5464    1.2129    0.0080 C   0  0  0  0  0
    1.7095   -3.2393   -0.0112 H   0  0  0  0  0
    3.2207   -2.3652    0.0112 H   0  0  0  0  0
   -0.3951   -2.1514   -0.0144 H   0  0  0  0  0
   -0.3954    2.1514    0.0078 H   0  0  0  0  0
    3.3301    0.0096    0.0144 H   0  0  0  0  0
    2.0879    2.1514    0.0144 H   0  0  0  0  0
  1  3  2  0  0  0
  2  3  2  0  0  0
  3  5  1  0  0  0
  4  6  1  0  0  0
  4 11  1  0  0  0
  4 12  1  0  0  0
  5  7  1  0  0  0
  5  8  2  0  0  0
  6  7  2  0  0  0
  6  9  1  0  0  0
  7 13  1  0  0  0
  8 10  1  0  0  0
  8 14  1  0  0  0
  9 10  2  0  0  0
  9 15  1  0  0  0
 10 16  1  0  0  0
M  END
> <EXTREG>
3-amino-nitrobenzene

> <# Confs.>
1

> <LIC50>
0.026

> <Name>
3-amino-nitrobenzene

$$$$
  3-nitro-phenol
XX    ILIB04271811163D

 15 15  0  0  1  0              1 V2000
   -2.4961   -1.0557   -0.0112 O   0  0  0  0  0
   -2.4961    1.0571   -0.0080 O   0  0  0  0  0
    2.2266   -2.3887    0.0078 O   0  0  0  0  0
   -1.8862    0.0128   -0.0080 N   0  2  0  0  0
    1.5464   -1.2119    0.0078 C   0  0  0  0  0
   -0.5532    0.0096   -0.0080 C   0  0  0  0  0
    0.1465   -1.2129   -0.0080 C   0  0  0  0  0
    2.2461    0.0096    0.0080 C   0  0  0  0  0
    0.1465    1.2129    0.0078 C   0  0  0  0  0
    1.5464    1.2129    0.0080 C   0  0  0  0  0
    3.2451   -2.1885    0.0128 H   0  0  0  0  0
   -0.3951   -2.1514   -0.0144 H   0  0  0  0  0
    3.3301    0.0096    0.0144 H   0  0  0  0  0
   -0.3954    2.1514    0.0078 H   0  0  0  0  0
    2.0879    2.1514    0.0144 H   0  0  0  0  0
  1  4  2  0  0  0
  2  4  2  0  0  0
  3  5  1  0  0  0
  3 11  1  0  0  0
  4  6  1  0  0  0
  5  7  2  0  0  0
  5  8  1  0  0  0
  6  7  1  0  0  0
  6  9  2  0  0  0
  7 12  1  0  0  0
  8 10  2  0  0  0
  8 13  1  0  0  0
  9 10  1  0  0  0
  9 14  1  0  0  0
 10 15  1  0  0  0
M  END
> <EXTREG>
3-nitro-phenol

> <# Confs.>
1

> <LIC50>
0.506

> <Name>
3-nitro-phenol

$$$$
  3-nitro-toluol
XX    ILIB04271811163D

 18 18  0  0  1  0              1 V2000
   -2.4961   -1.0557   -0.0112 O   0  0  0  0  0
   -2.4961    1.0571   -0.0080 O   0  0  0  0  0
    3.7012   -2.2539    0.0088 O   0  0  0  0  0
   -1.8862    0.0128   -0.0080 N   0  2  0  0  0
   -0.5532    0.0096   -0.0080 C   0  0  0  0  0
    1.5464   -1.2119    0.0078 C   0  0  0  0  0
    0.1465   -1.2129   -0.0080 C   0  0  0  0  0
    0.1465    1.2129    0.0078 C   0  0  0  0  0
    2.2461    0.0096    0.0080 C   0  0  0  0  0
    1.5464    1.2129    0.0080 C   0  0  0  0  0
    2.2988   -2.5146    0.0078 C   0  0  0  0  0
    4.2109   -3.1572    0.0088 H   0  0  0  0  0
   -0.3951   -2.1514   -0.0144 H   0  0  0  0  0
   -0.3954    2.1514    0.0078 H   0  0  0  0  0
    3.3301    0.0096    0.0144 H   0  0  0  0  0
    2.0879    2.1514    0.0144 H   0  0  0  0  0
    2.0352   -3.0869    0.8904 H   0  0  0  0  0
    2.0361   -3.0859   -0.8911 H   0  0  0  0  0
  1  4  2  0  0  0
  2  4  2  0  0  0
  3 11  1  0  0  0
  3 12  1  0  0  0
  4  5  1  0  0  0
  5  7  1  0  0  0
  5  8  2  0  0  0
  6  7  2  0  0  0
  6  9  1  0  0  0
  6 11  1  0  0  0
  7 13  1  0  0  0
  8 10  1  0  0  0
  8 14  1  0  0  0
  9 10  2  0  0  0
  9 15  1  0  0  0
 10 16  1  0  0  0
 11 17  1  0  0  0
 11 18  1  0  0  0
M  END
> <EXTREG>
3-nitro-toluol

> <# Confs.>
1

> <LIC50>
-0.22

> <Name>
3-nitro-toluol

$$$$
  3-nitro-benzoic_acid
XX    ILIB04271811163D

 17 17  0  0  1  0              1 V2000
   -2.4961   -1.0557   -0.0112 O   0  0  0  0  0
   -2.4961    1.0571   -0.0080 O   0  0  0  0  0
    1.6748   -3.5371   -0.0144 O   0  0  0  0  0
    3.7080   -2.4834    0.0080 O   0  0  0  0  0
   -1.8862    0.0128   -0.0080 N   0  2  0  0  0
   -0.5532    0.0096   -0.0080 C   0  0  0  0  0
    1.5464   -1.2119    0.0078 C   0  0  0  0  0
    0.1465   -1.2129   -0.0080 C   0  0  0  0  0
    0.1465    1.2129    0.0078 C   0  0  0  0  0
    2.2461    0.0096    0.0080 C   0  0  0  0  0
    1.5464    1.2129    0.0080 C   0  0  0  0  0
    2.2812   -2.4844    0.0078 C   0  0  0  0  0
    4.0430   -3.4658    0.0144 H   0  0  0  0  0
   -0.3951   -2.1514   -0.0144 H   0  0  0  0  0
   -0.3954    2.1514    0.0078 H   0  0  0  0  0
    3.3301    0.0096    0.0144 H   0  0  0  0  0
    2.0879    2.1514    0.0144 H   0  0  0  0  0
  1  5  2  0  0  0
  2  5  2  0  0  0
  3 12  2  0  0  0
  4 12  1  0  0  0
  4 13  1  0  0  0
  5  6  1  0  0  0
  6  8  1  0  0  0
  6  9  2  0  0  0
  7  8  2  0  0  0
  7 10  1  0  0  0
  7 12  1  0  0  0
  8 14  1  0  0  0
  9 11  1  0  0  0
  9 15  1  0  0  0
 10 11  2  0  0  0
 10 16  1  0  0  0
 11 17  1  0  0  0
M  END
> <EXTREG>
3-nitro-benzoic_acid

> <# Confs.>
1

> <LIC50>
-1.089

> <Name>
3-nitro-benzoic_acid

$$$$
  3-phenyl-nitrobenzene
XX    ILIB04271811163D

 24 25  0  0  1  0              1 V2000
   -6.1660   -1.0557   -0.0096 O   0  0  0  0  0
   -6.1660    1.0571   -0.0128 O   0  0  0  0  0
   -5.5547    0.0128   -0.0128 N   0  2  0  0  0
   -4.2227    0.0096   -0.0096 C   0  0  0  0  0
   -2.1230   -1.2119    0.0128 C   0  0  0  0  0
   -1.4229   -2.4238    0.0080 C   0  0  0  0  0
   -3.5225   -1.2129   -0.0096 C   0  0  0  0  0
   -3.5225    1.2129    0.0128 C   0  0  0  0  0
   -1.4233    0.0096    0.0120 C   0  0  0  0  0
   -0.0221   -2.4229    0.0120 C   0  0  0  0  0
   -2.1221   -3.6357   -0.0080 C   0  0  0  0  0
   -2.1230    1.2129    0.0112 C   0  0  0  0  0
    0.6772   -3.6357    0.0112 C   0  0  0  0  0
   -1.4224   -4.8477   -0.0080 C   0  0  0  0  0
   -0.0225   -4.8477    0.0080 C   0  0  0  0  0
   -4.0645   -2.1514   -0.0104 H   0  0  0  0  0
   -4.0645    2.1514    0.0080 H   0  0  0  0  0
   -0.3394    0.0096    0.0088 H   0  0  0  0  0
    0.5198   -1.4844    0.0088 H   0  0  0  0  0
   -3.2061   -3.6367   -0.0104 H   0  0  0  0  0
   -1.5811    2.1514    0.0088 H   0  0  0  0  0
    1.7612   -3.6357    0.0088 H   0  0  0  0  0
   -1.9639   -5.7871   -0.0104 H   0  0  0  0  0
    0.5195   -5.7871    0.0080 H   0  0  0  0  0
  1  3  2  0  0  0
  2  3  2  0  0  0
  3  4  1  0  0  0
  4  7  1  0  0  0
  4  8  2  0  0  0
  5  6  1  0  0  0
  5  7  2  0  0  0
  5  9  1  0  0  0
  6 10  1  0  0  0
  6 11  2  0  0  0
  7 16  1  0  0  0
  8 12  1  0  0  0
  8 17  1  0  0  0
  9 12  2  0  0  0
  9 18  1  0  0  0
 10 13  2  0  0  0
 10 19  1  0  0  0
 11 14  1  0  0  0
 11 20  1  0  0  0
 12 21  1  0  0  0
 13 15  1  0  0  0
 13 22  1  0  0  0
 14 15  2  0  0  0
 14 23  1  0  0  0
 15 24  1  0  0  0
M  END
> <EXTREG>
3-phenyl-nitrobenzene

> <# Confs.>
1

> <LIC50>
1.569

> <Name>
3-phenyl-nitrobenzene

$$$$
  3-nitro-benzamide
XX    ILIB04271811163D

 18 18  0  0  1  0              1 V2000
   -2.3604   -1.0264   -0.0108 O   0  0  0  0  0
   -2.3594    1.0859   -0.0152 O   0  0  0  0  0
    1.8105   -3.5078   -0.0128 O   0  0  0  0  0
   -1.7500    0.0297   -0.0152 N   0  2  0  0  0
    3.7510   -2.4551    0.0088 N   0  0  0  0  0
   -0.4174    0.0295   -0.0144 C   0  0  0  0  0
    1.6821   -1.1826    0.0128 C   0  0  0  0  0
    0.2826   -1.1836   -0.0144 C   0  0  0  0  0
    0.2826    1.2417    0.0128 C   0  0  0  0  0
    2.3818    0.0295    0.0088 C   0  0  0  0  0
    1.6821    1.2417    0.0088 C   0  0  0  0  0
    2.4180   -2.4551    0.0128 C   0  0  0  0  0
    4.2539   -1.5820    0.0144 H   0  0  0  0  0
    4.2539   -3.3271    0.0088 H   0  0  0  0  0
   -0.2593   -2.1221   -0.0136 H   0  0  0  0  0
   -0.2594    2.1807    0.0128 H   0  0  0  0  0
    3.4658    0.0295    0.0152 H   0  0  0  0  0
    2.2236    2.1807    0.0152 H   0  0  0  0  0
  1  4  2  0  0  0
  2  4  2  0  0  0
  3 12  2  0  0  0
  4  6  1  0  0  0
  5 12  1  0  0  0
  5 13  1  0  0  0
  5 14  1  0  0  0
  6  8  1  0  0  0
  6  9  2  0  0  0
  7  8  2  0  0  0
  7 10  1  0  0  0
  7 12  1  0  0  0
  8 15  1  0  0  0
  9 11  1  0  0  0
  9 16  1  0  0  0
 10 11  2  0  0  0
 10 17  1  0  0  0
 11 18  1  0  0  0
M  END
> <EXTREG>
3-nitro-benzamide

> <# Confs.>
1

> <LIC50>
-0.193

> <Name>
3-nitro-benzamide

$$$$
  3-nitro-benzaldehyde
XX    ILIB04271811163D

 16 16  0  0  1  0              1 V2000
   -2.4961   -1.0557   -0.0112 O   0  0  0  0  0
   -2.4961    1.0571   -0.0080 O   0  0  0  0  0
    3.4971   -2.4834    0.0144 O   0  0  0  0  0
   -1.8862    0.0128   -0.0080 N   0  2  0  0  0
   -0.5532    0.0096   -0.0080 C   0  0  0  0  0
    1.5464   -1.2119    0.0078 C   0  0  0  0  0
    0.1465   -1.2129   -0.0080 C   0  0  0  0  0
    0.1465    1.2129    0.0078 C   0  0  0  0  0
    2.2461    0.0096    0.0080 C   0  0  0  0  0
    1.5464    1.2129    0.0080 C   0  0  0  0  0
    2.2812   -2.4844    0.0078 C   0  0  0  0  0
   -0.3951   -2.1514   -0.0144 H   0  0  0  0  0
   -0.3954    2.1514    0.0078 H   0  0  0  0  0
    3.3301    0.0096    0.0144 H   0  0  0  0  0
    2.0879    2.1514    0.0144 H   0  0  0  0  0
    1.7368   -3.4297   -0.0128 H   0  0  0  0  0
  1  4  2  0  0  0
  2  4  2  0  0  0
  3 11  2  0  0  0
  4  5  1  0  0  0
  5  7  1  0  0  0
  5  8  2  0  0  0
  6  7  2  0  0  0
  6  9  1  0  0  0
  6 11  1  0  0  0
  7 12  1  0  0  0
  8 10  1  0  0  0
  8 13  1  0  0  0
  9 10  2  0  0  0
  9 14  1  0  0  0
 10 15  1  0  0  0
 11 16  1  0  0  0
M  END
> <EXTREG>
3-nitro-benzaldehyde

> <# Confs.>
1

> <LIC50>
0.14

> <Name>
3-nitro-benzaldehyde

$$$$
  1-3-dinitrobenzene
XX    ILIB04271811163D

 18 18  0  0  1  0              1 V2000
   -2.4961   -1.0557   -0.0112 O   0  0  0  0  0
   -2.4961    1.0571   -0.0080 O   0  0  0  0  0
    1.6826   -3.2852   -0.0128 O   0  0  0  0  0
    3.2754   -2.3652    0.0128 O   0  0  0  0  0
   -1.8862    0.0128   -0.0080 N   0  2  0  0  0
    2.2129   -2.3652    0.0078 N   0  0  0  0  0
   -0.5532    0.0096   -0.0080 C   0  0  0  0  0
    1.5464   -1.2119    0.0078 C   0  0  0  0  0
    0.1465   -1.2129   -0.0080 C   0  0  0  0  0
    0.1465    1.2129    0.0078 C   0  0  0  0  0
    2.2461    0.0096    0.0080 C   0  0  0  0  0
    1.5464    1.2129    0.0080 C   0  0  0  0  0
    2.3652   -4.0664   -0.0096 H   0  0  0  0  0
    3.6113   -3.3467    0.0096 H   0  0  0  0  0
   -0.3951   -2.1514   -0.0144 H   0  0  0  0  0
   -0.3954    2.1514    0.0078 H   0  0  0  0  0
    3.3301    0.0096    0.0144 H   0  0  0  0  0
    2.0879    2.1514    0.0144 H   0  0  0  0  0
  1  5  2  0  0  0
  2  5  2  0  0  0
  3  6  1  0  0  0
  3 13  1  0  0  0
  4  6  1  0  0  0
  4 14  1  0  0  0
  5  7  1  0  0  0
  6  8  1  0  0  0
  7  9  1  0  0  0
  7 10  2  0  0  0
  8  9  2  0  0  0
  8 11  1  0  0  0
  9 15  1  0  0  0
 10 12  1  0  0  0
 10 16  1  0  0  0
 11 12  2  0  0  0
 11 17  1  0  0  0
 12 18  1  0  0  0
M  END
> <EXTREG>
1-3-dinitrobenzene

> <# Confs.>
1

> <LIC50>
0.762

> <Name>
1-3-dinitrobenzene

$$$$
  3-methoxy-
XX    ILIB04271811163D

 18 18  0  0  1  0              1 V2000
   -2.4961   -1.0557   -0.0112 O   0  0  0  0  0
   -2.4961    1.0571   -0.0080 O   0  0  0  0  0
    2.2266   -2.3887    0.0078 O   0  0  0  0  0
   -1.8862    0.0128   -0.0080 N   0  2  0  0  0
    1.5464   -1.2119    0.0078 C   0  0  0  0  0
   -0.5532    0.0096   -0.0080 C   0  0  0  0  0
    0.1465   -1.2129   -0.0080 C   0  0  0  0  0
    2.2461    0.0096    0.0080 C   0  0  0  0  0
    0.1465    1.2129    0.0078 C   0  0  0  0  0
    1.5464    1.2129    0.0080 C   0  0  0  0  0
    3.6279   -2.1279    0.0088 C   0  0  0  0  0
   -0.3951   -2.1514   -0.0144 H   0  0  0  0  0
    3.3301    0.0096    0.0144 H   0  0  0  0  0
   -0.3954    2.1514    0.0078 H   0  0  0  0  0
    2.0879    2.1514    0.0144 H   0  0  0  0  0
    3.8926   -1.5557   -0.8892 H   0  0  0  0  0
    3.8906   -1.5562    0.8921 H   0  0  0  0  0
    4.1738   -3.0723    0.0088 H   0  0  0  0  0
  1  4  2  0  0  0
  2  4  2  0  0  0
  3  5  1  0  0  0
  3 11  1  0  0  0
  4  6  1  0  0  0
  5  7  2  0  0  0
  5  8  1  0  0  0
  6  7  1  0  0  0
  6  9  2  0  0  0
  7 12  1  0  0  0
  8 10  2  0  0  0
  8 13  1  0  0  0
  9 10  1  0  0  0
  9 14  1  0  0  0
 10 15  1  0  0  0
 11 16  1  0  0  0
 11 17  1  0  0  0
 11 18  1  0  0  0
M  END
> <EXTREG>
3-methoxy-

> <# Confs.>
2

> <LIC50>
0.67

> <Name>
3-methoxy-

$$$$
  4-nitro-toluene
XX    ILIB04271811163D

 17 17  0  0  1  0              1 V2000
   -2.4961   -1.0557   -0.0112 O   0  0  0  0  0
   -2.4961    1.0571   -0.0080 O   0  0  0  0  0
   -1.8862    0.0128   -0.0080 N   0  2  0  0  0
   -0.5532    0.0096   -0.0080 C   0  0  0  0  0
    2.2461    0.0096    0.0080 C   0  0  0  0  0
    0.1465   -1.2129   -0.0080 C   0  0  0  0  0
    0.1465    1.2129    0.0078 C   0  0  0  0  0
    1.5464   -1.2119    0.0078 C   0  0  0  0  0
    1.5464    1.2129    0.0080 C   0  0  0  0  0
    3.7510    0.0096    0.0084 C   0  0  0  0  0
   -0.3951   -2.1514   -0.0144 H   0  0  0  0  0
   -0.3954    2.1514    0.0078 H   0  0  0  0  0
    2.0889   -2.1504    0.0078 H   0  0  0  0  0
    2.0879    2.1514    0.0144 H   0  0  0  0  0
    4.1133   -0.5139    0.8928 H   0  0  0  0  0
    4.1152   -0.5132   -0.8887 H   0  0  0  0  0
    4.1133    1.0288    0.0112 H   0  0  0  0  0
  1  3  2  0  0  0
  2  3  2  0  0  0
  3  4  1  0  0  0
  4  6  1  0  0  0
  4  7  2  0  0  0
  5  8  1  0  0  0
  5  9  2  0  0  0
  5 10  1  0  0  0
  6  8  2  0  0  0
  6 11  1  0  0  0
  7  9  1  0  0  0
  7 12  1  0  0  0
  8 13  1  0  0  0
  9 14  1  0  0  0
 10 15  1  0  0  0
 10 16  1  0  0  0
 10 17  1  0  0  0
M  END
> <EXTREG>
4-nitro-toluene

> <# Confs.>
1

> <LIC50>
0.35

> <Name>
4-nitro-toluene

$$$$
  4-ethyl-nitrobenzene
XX    ILIB04271811163D

 20 20  0  0  1  0              1 V2000
   -2.4961   -1.0557   -0.0112 O   0  0  0  0  0
   -2.4961    1.0571   -0.0080 O   0  0  0  0  0
   -1.8862    0.0128   -0.0080 N   0  2  0  0  0
   -0.5532    0.0096   -0.0080 C   0  0  0  0  0
    2.2461    0.0096    0.0080 C   0  0  0  0  0
    0.1465   -1.2129   -0.0080 C   0  0  0  0  0
    0.1465    1.2129    0.0078 C   0  0  0  0  0
    1.5464   -1.2119    0.0078 C   0  0  0  0  0
    1.5464    1.2129    0.0080 C   0  0  0  0  0
    3.7510    0.0096    0.0084 C   0  0  0  0  0
    4.2637    1.4492    0.0120 C   0  0  0  0  0
   -0.3951   -2.1514   -0.0144 H   0  0  0  0  0
   -0.3954    2.1514    0.0078 H   0  0  0  0  0
    2.0889   -2.1504    0.0078 H   0  0  0  0  0
    2.0879    2.1514    0.0144 H   0  0  0  0  0
    4.1133   -0.5139    0.8928 H   0  0  0  0  0
    4.1152   -0.5132   -0.8887 H   0  0  0  0  0
    3.9004    1.9639   -0.8877 H   0  0  0  0  0
    3.8994    1.9634    0.8938 H   0  0  0  0  0
    5.3535    1.4492    0.0152 H   0  0  0  0  0
  1  3  2  0  0  0
  2  3  2  0  0  0
  3  4  1  0  0  0
  4  6  1  0  0  0
  4  7  2  0  0  0
  5  8  1  0  0  0
  5  9  2  0  0  0
  5 10  1  0  0  0
  6  8  2  0  0  0
  6 12  1  0  0  0
  7  9  1  0  0  0
  7 13  1  0  0  0
  8 14  1  0  0  0
  9 15  1  0  0  0
 10 11  1  0  0  0
 10 16  1  0  0  0
 10 17  1  0  0  0
 11 18  1  0  0  0
 11 19  1  0  0  0
 11 20  1  0  0  0
M  END
> <EXTREG>
4-ethyl-nitrobenzene

> <# Confs.>
1

> <LIC50>
0.796

> <Name>
4-ethyl-nitrobenzene

$$$$
  4-methoxynitrobenzene
XX    ILIB04271811163D

 18 18  0  0  1  0              1 V2000
   -2.4961   -1.0557   -0.0112 O   0  0  0  0  0
   -2.4961    1.0571   -0.0080 O   0  0  0  0  0
    3.6064    0.0096    0.0080 O   0  0  0  0  0
   -1.8862    0.0128   -0.0080 N   0  2  0  0  0
    2.2461    0.0096    0.0080 C   0  0  0  0  0
   -0.5532    0.0096   -0.0080 C   0  0  0  0  0
    1.5464   -1.2119    0.0078 C   0  0  0  0  0
    1.5464    1.2129    0.0080 C   0  0  0  0  0
    0.1465   -1.2129   -0.0080 C   0  0  0  0  0
    0.1465    1.2129    0.0078 C   0  0  0  0  0
    4.0801    1.3447    0.0116 C   0  0  0  0  0
    2.0889   -2.1504    0.0078 H   0  0  0  0  0
    2.0879    2.1514    0.0144 H   0  0  0  0  0
   -0.3951   -2.1514   -0.0144 H   0  0  0  0  0
   -0.3954    2.1514    0.0078 H   0  0  0  0  0
    3.7188    1.8594   -0.8879 H   0  0  0  0  0
    3.7168    1.8589    0.8936 H   0  0  0  0  0
    5.1719    1.3447    0.0144 H   0  0  0  0  0
  1  4  2  0  0  0
  2  4  2  0  0  0
  3  5  1  0  0  0
  3 11  1  0  0  0
  4  6  1  0  0  0
  5  7  1  0  0  0
  5  8  2  0  0  0
  6  9  1  0  0  0
  6 10  2  0  0  0
  7  9  2  0  0  0
  7 12  1  0  0  0
  8 10  1  0  0  0
  8 13  1  0  0  0
  9 14  1  0  0  0
 10 15  1  0  0  0
 11 16  1  0  0  0
 11 17  1  0  0  0
 11 18  1  0  0  0
M  END
> <EXTREG>
4-methoxynitrobenzene

> <# Confs.>
1

> <LIC50>
0.804

> <Name>
4-methoxynitrobenzene

$$$$
  4-ethoxynitrobenzene
XX    ILIB04271811163D

 21 21  0  0  1  0              1 V2000
   -2.4961   -1.0557   -0.0112 O   0  0  0  0  0
   -2.4961    1.0571   -0.0080 O   0  0  0  0  0
    3.6064    0.0096    0.0080 O   0  0  0  0  0
   -1.8862    0.0128   -0.0080 N   0  2  0  0  0
    2.2461    0.0096    0.0080 C   0  0  0  0  0
   -0.5532    0.0096   -0.0080 C   0  0  0  0  0
    1.5464   -1.2119    0.0078 C   0  0  0  0  0
    1.5464    1.2129    0.0080 C   0  0  0  0  0
    0.1465   -1.2129   -0.0080 C   0  0  0  0  0
    0.1465    1.2129    0.0078 C   0  0  0  0  0
    4.0801    1.3447    0.0116 C   0  0  0  0  0
    5.6172    1.3447    0.0080 C   0  0  0  0  0
    2.0889   -2.1504    0.0078 H   0  0  0  0  0
    2.0879    2.1514    0.0144 H   0  0  0  0  0
   -0.3951   -2.1514   -0.0144 H   0  0  0  0  0
   -0.3954    2.1514    0.0078 H   0  0  0  0  0
    3.7188    1.8594   -0.8879 H   0  0  0  0  0
    3.7168    1.8589    0.8936 H   0  0  0  0  0
    5.9805    0.8303    0.8948 H   0  0  0  0  0
    5.9824    0.8311   -0.8867 H   0  0  0  0  0
    5.9824    2.3730    0.0092 H   0  0  0  0  0
  1  4  2  0  0  0
  2  4  2  0  0  0
  3  5  1  0  0  0
  3 11  1  0  0  0
  4  6  1  0  0  0
  5  7  1  0  0  0
  5  8  2  0  0  0
  6  9  1  0  0  0
  6 10  2  0  0  0
  7  9  2  0  0  0
  7 13  1  0  0  0
  8 10  1  0  0  0
  8 14  1  0  0  0
  9 15  1  0  0  0
 10 16  1  0  0  0
 11 12  1  0  0  0
 11 17  1  0  0  0
 11 18  1  0  0  0
 12 19  1  0  0  0
 12 20  1  0  0  0
 12 21  1  0  0  0
M  END
> <EXTREG>
4-ethoxynitrobenzene

> <# Confs.>
1

> <LIC50>
0.544

> <Name>
4-ethoxynitrobenzene

$$$$
  4-butoxynitrobenzene
XX    ILIB04271811163D

 27 27  0  0  1  0              1 V2000
   -2.4961   -1.0557   -0.0112 O   0  0  0  0  0
   -2.4961    1.0571   -0.0080 O   0  0  0  0  0
    3.6064    0.0096    0.0080 O   0  0  0  0  0
   -1.8862    0.0128   -0.0080 N   0  2  0  0  0
    2.2461    0.0096    0.0080 C   0  0  0  0  0
   -0.5532    0.0096   -0.0080 C   0  0  0  0  0
    1.5464   -1.2119    0.0078 C   0  0  0  0  0
    1.5464    1.2129    0.0080 C   0  0  0  0  0
    0.1465   -1.2129   -0.0080 C   0  0  0  0  0
    0.1465    1.2129    0.0078 C   0  0  0  0  0
    4.0801    1.3447    0.0116 C   0  0  0  0  0
    5.6172    1.3447    0.0080 C   0  0  0  0  0
    6.1309    2.7939    0.0098 C   0  0  0  0  0
    7.6680    2.7939    0.0120 C   0  0  0  0  0
    2.0889   -2.1504    0.0078 H   0  0  0  0  0
    2.0879    2.1514    0.0144 H   0  0  0  0  0
   -0.3951   -2.1514   -0.0144 H   0  0  0  0  0
   -0.3954    2.1514    0.0078 H   0  0  0  0  0
    3.7188    1.8594   -0.8879 H   0  0  0  0  0
    3.7168    1.8589    0.8936 H   0  0  0  0  0
    5.9805    0.8303    0.8948 H   0  0  0  0  0
    5.9824    0.8311   -0.8867 H   0  0  0  0  0
    5.7676    3.3086   -0.8857 H   0  0  0  0  0
    5.7656    3.3076    0.8955 H   0  0  0  0  0
    8.0312    2.2793    0.8967 H   0  0  0  0  0
    8.0312    2.2803   -0.8845 H   0  0  0  0  0
    8.0312    3.8223    0.0134 H   0  0  0  0  0
  1  4  2  0  0  0
  2  4  2  0  0  0
  3  5  1  0  0  0
  3 11  1  0  0  0
  4  6  1  0  0  0
  5  7  1  0  0  0
  5  8  2  0  0  0
  6  9  1  0  0  0
  6 10  2  0  0  0
  7  9  2  0  0  0
  7 15  1  0  0  0
  8 10  1  0  0  0
  8 16  1  0  0  0
  9 17  1  0  0  0
 10 18  1  0  0  0
 11 12  1  0  0  0
 11 19  1  0  0  0
 11 20  1  0  0  0
 12 13  1  0  0  0
 12 21  1  0  0  0
 12 22  1  0  0  0
 13 14  1  0  0  0
 13 23  1  0  0  0
 13 24  1  0  0  0
 14 25  1  0  0  0
 14 26  1  0  0  0
 14 27  1  0  0  0
M  END
> <EXTREG>
4-butoxynitrobenzene

> <# Confs.>
1

> <LIC50>
0.829

> <Name>
4-butoxynitrobenzene

$$$$
  4-fluoro-nitrobenzene
XX    ILIB04271811163D

 14 14  0  0  1  0              1 V2000
    3.5742    0.0096    0.0152 F   0  0  0  0  0
   -2.4961   -1.0557   -0.0112 O   0  0  0  0  0
   -2.4961    1.0571   -0.0080 O   0  0  0  0  0
   -1.8862    0.0128   -0.0080 N   0  2  0  0  0
    2.2461    0.0096    0.0080 C   0  0  0  0  0
   -0.5532    0.0096   -0.0080 C   0  0  0  0  0
    1.5464   -1.2119    0.0078 C   0  0  0  0  0
    1.5464    1.2129    0.0080 C   0  0  0  0  0
    0.1465   -1.2129   -0.0080 C   0  0  0  0  0
    0.1465    1.2129    0.0078 C   0  0  0  0  0
    2.0889   -2.1504    0.0078 H   0  0  0  0  0
    2.0879    2.1514    0.0144 H   0  0  0  0  0
   -0.3951   -2.1514   -0.0144 H   0  0  0  0  0
   -0.3954    2.1514    0.0078 H   0  0  0  0  0
  1  5  1  0  0  0
  2  4  2  0  0  0
  3  4  2  0  0  0
  4  6  1  0  0  0
  5  7  1  0  0  0
  5  8  2  0  0  0
  6  9  1  0  0  0
  6 10  2  0  0  0
  7  9  2  0  0  0
  7 11  1  0  0  0
  8 10  1  0  0  0
  8 12  1  0  0  0
  9 13  1  0  0  0
 10 14  1  0  0  0
M  END
> <EXTREG>
4-fluoro-nitrobenzene

> <# Confs.>
1

> <LIC50>
1.42

> <Name>
4-fluoro-nitrobenzene

$$$$
  4-chloro-nitrobenzene
XX    ILIB04271811163D

 14 14  0  0  1  0              1 V2000
    3.9463    0.0096    0.0088 Cl  0  0  0  0  0
   -2.4961   -1.0557   -0.0112 O   0  0  0  0  0
   -2.4961    1.0571   -0.0080 O   0  0  0  0  0
   -1.8862    0.0128   -0.0080 N   0  2  0  0  0
    2.2461    0.0096    0.0080 C   0  0  0  0  0
   -0.5532    0.0096   -0.0080 C   0  0  0  0  0
    1.5464   -1.2119    0.0078 C   0  0  0  0  0
    1.5464    1.2129    0.0080 C   0  0  0  0  0
    0.1465   -1.2129   -0.0080 C   0  0  0  0  0
    0.1465    1.2129    0.0078 C   0  0  0  0  0
    2.0889   -2.1504    0.0078 H   0  0  0  0  0
    2.0879    2.1514    0.0144 H   0  0  0  0  0
   -0.3951   -2.1514   -0.0144 H   0  0  0  0  0
   -0.3954    2.1514    0.0078 H   0  0  0  0  0
  1  5  1  0  0  0
  2  4  2  0  0  0
  3  4  2  0  0  0
  4  6  1  0  0  0
  5  7  1  0  0  0
  5  8  2  0  0  0
  6  9  1  0  0  0
  6 10  2  0  0  0
  7  9  2  0  0  0
  7 11  1  0  0  0
  8 10  1  0  0  0
  8 12  1  0  0  0
  9 13  1  0  0  0
 10 14  1  0  0  0
M  END
> <EXTREG>
4-chloro-nitrobenzene

> <# Confs.>
1

> <LIC50>
0.253

> <Name>
4-chloro-nitrobenzene

$$$$
  4-bromo-nitrobenzene
XX    ILIB04271811163D

 14 14  0  0  1  0              1 V2000
    4.0957    0.0096    0.0092 Br  0  0  0  0  0
   -2.4961   -1.0557   -0.0112 O   0  0  0  0  0
   -2.4961    1.0571   -0.0080 O   0  0  0  0  0
   -1.8862    0.0128   -0.0080 N   0  2  0  0  0
    2.2461    0.0096    0.0080 C   0  0  0  0  0
   -0.5532    0.0096   -0.0080 C   0  0  0  0  0
    1.5464   -1.2119    0.0078 C   0  0  0  0  0
    1.5464    1.2129    0.0080 C   0  0  0  0  0
    0.1465   -1.2129   -0.0080 C   0  0  0  0  0
    0.1465    1.2129    0.0078 C   0  0  0  0  0
    2.0889   -2.1504    0.0078 H   0  0  0  0  0
    2.0879    2.1514    0.0144 H   0  0  0  0  0
   -0.3951   -2.1514   -0.0144 H   0  0  0  0  0
   -0.3954    2.1514    0.0078 H   0  0  0  0  0
  1  5  1  0  0  0
  2  4  2  0  0  0
  3  4  2  0  0  0
  4  6  1  0  0  0
  5  7  1  0  0  0
  5  8  2  0  0  0
  6  9  1  0  0  0
  6 10  2  0  0  0
  7  9  2  0  0  0
  7 11  1  0  0  0
  8 10  1  0  0  0
  8 12  1  0  0  0
  9 13  1  0  0  0
 10 14  1  0  0  0
M  END
> <EXTREG>
4-bromo-nitrobenzene

> <# Confs.>
1

> <LIC50>
0.559

> <Name>
4-bromo-nitrobenzene

$$$$
  4-cyano-nitrobenzene
XX    ILIB04271811163D

 15 15  0  0  1  0              1 V2000
   -2.4961   -1.0557   -0.0112 O   0  0  0  0  0
   -2.4961    1.0571   -0.0080 O   0  0  0  0  0
   -1.8862    0.0128   -0.0080 N   0  2  0  0  0
    4.8906    0.0096    0.0116 N   0  0  0  0  0
   -0.5532    0.0096   -0.0080 C   0  0  0  0  0
    2.2461    0.0096    0.0080 C   0  0  0  0  0
    0.1465   -1.2129   -0.0080 C   0  0  0  0  0
    0.1465    1.2129    0.0078 C   0  0  0  0  0
    1.5464   -1.2119    0.0078 C   0  0  0  0  0
    1.5464    1.2129    0.0080 C   0  0  0  0  0
    3.7510    0.0096    0.0084 C   0  0  0  0  0
   -0.3951   -2.1514   -0.0144 H   0  0  0  0  0
   -0.3954    2.1514    0.0078 H   0  0  0  0  0
    2.0889   -2.1504    0.0078 H   0  0  0  0  0
    2.0879    2.1514    0.0144 H   0  0  0  0  0
  1  3  2  0  0  0
  2  3  2  0  0  0
  3  5  1  0  0  0
  4 11  3  0  0  0
  5  7  1  0  0  0
  5  8  2  0  0  0
  6  9  1  0  0  0
  6 10  2  0  0  0
  6 11  1  0  0  0
  7  9  2  0  0  0
  7 12  1  0  0  0
  8 10  1  0  0  0
  8 13  1  0  0  0
  9 14  1  0  0  0
 10 15  1  0  0  0
M  END
> <EXTREG>
4-cyano-nitrobenzene

> <# Confs.>
1

> <LIC50>
0.461

> <Name>
4-cyano-nitrobenzene

$$$$
  4-methylcyano-nitrobenzene
XX    ILIB04271811163D

 18 18  0  0  1  0              1 V2000
   -2.4961   -1.0557   -0.0112 O   0  0  0  0  0
   -2.4961    1.0571   -0.0080 O   0  0  0  0  0
   -1.8862    0.0128   -0.0080 N   0  2  0  0  0
    4.6445    2.5312    0.0152 N   0  0  0  0  0
   -0.5532    0.0096   -0.0080 C   0  0  0  0  0
    2.2461    0.0096    0.0080 C   0  0  0  0  0
    0.1465   -1.2129   -0.0080 C   0  0  0  0  0
    0.1465    1.2129    0.0078 C   0  0  0  0  0
    1.5464   -1.2119    0.0078 C   0  0  0  0  0
    1.5464    1.2129    0.0080 C   0  0  0  0  0
    4.2656    1.4565    0.0120 C   0  0  0  0  0
    3.7510    0.0096    0.0084 C   0  0  0  0  0
   -0.3951   -2.1514   -0.0144 H   0  0  0  0  0
   -0.3954    2.1514    0.0078 H   0  0  0  0  0
    2.0889   -2.1504    0.0078 H   0  0  0  0  0
    2.0879    2.1514    0.0144 H   0  0  0  0  0
    4.1133   -0.5139    0.8928 H   0  0  0  0  0
    4.1152   -0.5132   -0.8887 H   0  0  0  0  0
  1  3  2  0  0  0
  2  3  2  0  0  0
  3  5  1  0  0  0
  4 11  3  0  0  0
  5  7  1  0  0  0
  5  8  2  0  0  0
  6  9  1  0  0  0
  6 10  2  0  0  0
  6 12  1  0  0  0
  7  9  2  0  0  0
  7 13  1  0  0  0
  8 10  1  0  0  0
  8 14  1  0  0  0
  9 15  1  0  0  0
 10 16  1  0  0  0
 11 12  1  0  0  0
 12 17  1  0  0  0
 12 18  1  0  0  0
M  END
> <EXTREG>
4-methylcyano-nitrobenzene

> <# Confs.>
1

> <LIC50>
0.569

> <Name>
4-methylcyano-nitrobenzene

$$$$
  4-nitro-chlorotoluene
XX    ILIB04271811163D

 17 17  0  0  1  0              1 V2000
    4.3398    1.6660    0.0128 Cl  0  0  0  0  0
   -2.4961   -1.0557   -0.0112 O   0  0  0  0  0
   -2.4961    1.0571   -0.0080 O   0  0  0  0  0
   -1.8862    0.0128   -0.0080 N   0  2  0  0  0
   -0.5532    0.0096   -0.0080 C   0  0  0  0  0
    2.2461    0.0096    0.0080 C   0  0  0  0  0
    0.1465   -1.2129   -0.0080 C   0  0  0  0  0
    0.1465    1.2129    0.0078 C   0  0  0  0  0
    1.5464   -1.2119    0.0078 C   0  0  0  0  0
    1.5464    1.2129    0.0080 C   0  0  0  0  0
    3.7510    0.0096    0.0084 C   0  0  0  0  0
   -0.3951   -2.1514   -0.0144 H   0  0  0  0  0
   -0.3954    2.1514    0.0078 H   0  0  0  0  0
    2.0889   -2.1504    0.0078 H   0  0  0  0  0
    2.0879    2.1514    0.0144 H   0  0  0  0  0
    4.1133   -0.5139    0.8928 H   0  0  0  0  0
    4.1152   -0.5132   -0.8887 H   0  0  0  0  0
  1 11  1  0  0  0
  2  4  2  0  0  0
  3  4  2  0  0  0
  4  5  1  0  0  0
  5  7  1  0  0  0
  5  8  2  0  0  0
  6  9  1  0  0  0
  6 10  2  0  0  0
  6 11  1  0  0  0
  7  9  2  0  0  0
  7 12  1  0  0  0
  8 10  1  0  0  0
  8 13  1  0  0  0
  9 14  1  0  0  0
 10 15  1  0  0  0
 11 16  1  0  0  0
 11 17  1  0  0  0
M  END
> <EXTREG>
4-nitro-chlorotoluene

> <# Confs.>
1

> <LIC50>
0.132

> <Name>
4-nitro-chlorotoluene

$$$$
  unknown1
XX    ILIB04271811163D

 20 20  0  0  1  0              1 V2000
   -2.4961   -1.0557   -0.0112 O   0  0  0  0  0
   -2.4961    1.0571   -0.0080 O   0  0  0  0  0
    5.2676    1.4277    0.0148 O   0  0  0  0  0
   -1.8862    0.0128   -0.0080 N   0  2  0  0  0
    4.2051    1.4004    0.0120 N   0  0  0  0  0
   -0.5532    0.0096   -0.0080 C   0  0  0  0  0
    2.2461    0.0096    0.0080 C   0  0  0  0  0
    0.1465   -1.2129   -0.0080 C   0  0  0  0  0
    0.1465    1.2129    0.0078 C   0  0  0  0  0
    1.5464   -1.2119    0.0078 C   0  0  0  0  0
    1.5464    1.2129    0.0080 C   0  0  0  0  0
    3.7510    0.0096    0.0084 C   0  0  0  0  0
    5.5781    2.4180    0.0088 H   0  0  0  0  0
    3.8574    1.8662    0.8257 H   0  0  0  0  0
   -0.3951   -2.1514   -0.0144 H   0  0  0  0  0
   -0.3954    2.1514    0.0078 H   0  0  0  0  0
    2.0889   -2.1504    0.0078 H   0  0  0  0  0
    2.0879    2.1514    0.0144 H   0  0  0  0  0
    4.1289   -0.5212    0.8821 H   0  0  0  0  0
    4.1211   -0.5085   -0.8887 H   0  0  0  0  0
  1  4  2  0  0  0
  2  4  2  0  0  0
  3  5  1  0  0  0
  3 13  1  0  0  0
  4  6  1  0  0  0
  5 12  1  0  0  0
  5 14  1  0  0  0
  6  8  1  0  0  0
  6  9  2  0  0  0
  7 10  1  0  0  0
  7 11  2  0  0  0
  7 12  1  0  0  0
  8 10  2  0  0  0
  8 15  1  0  0  0
  9 11  1  0  0  0
  9 16  1  0  0  0
 10 17  1  0  0  0
 11 18  1  0  0  0
 12 19  1  0  0  0
 12 20  1  0  0  0
M  END
> <EXTREG>
unknown1

> <# Confs.>
1

> <LIC50>
1.18

> <Name>
unknown1

$$$$
  Molecule 1
XX    ILIB04271811163D

 26 27  0  0  1  0              1 V2000
   -6.7227   -1.0557   -0.0104 O   0  0  0  0  0
   -6.7227    1.0571   -0.0144 O   0  0  0  0  0
   -6.1113    0.0128   -0.0144 N   0  2  0  0  0
   -0.6467    0.0096    0.0088 N   0  0  0  0  0
   -4.7793    0.0096   -0.0128 C   0  0  0  0  0
   -1.9795    0.0096    0.0096 C   0  0  0  0  0
    0.0196    1.1548    0.0124 C   0  0  0  0  0
   -4.0781   -1.2129   -0.0128 C   0  0  0  0  0
   -4.0781    1.2129    0.0128 C   0  0  0  0  0
   -2.6797   -1.2119    0.0128 C   0  0  0  0  0
   -2.6797    1.2129    0.0096 C   0  0  0  0  0
    1.4199    1.1548    0.0082 C   0  0  0  0  0
   -0.6807    2.3672    0.0124 C   0  0  0  0  0
    2.1191    2.3672    0.0102 C   0  0  0  0  0
    0.0191    3.5791    0.0082 C   0  0  0  0  0
    1.4189    3.5801    0.0102 C   0  0  0  0  0
   -0.1429   -0.8723    0.0088 H   0  0  0  0  0
   -4.6211   -2.1514   -0.0128 H   0  0  0  0  0
   -4.6211    2.1514    0.0128 H   0  0  0  0  0
   -2.1367   -2.1504    0.0128 H   0  0  0  0  0
   -2.1377    2.1514    0.0080 H   0  0  0  0  0
    1.9624    0.2162    0.0082 H   0  0  0  0  0
   -1.7646    2.3662    0.0092 H   0  0  0  0  0
    3.2031    2.3682    0.0118 H   0  0  0  0  0
   -0.5229    4.5176    0.0082 H   0  0  0  0  0
    1.9604    4.5176    0.0118 H   0  0  0  0  0
  1  3  2  0  0  0
  2  3  2  0  0  0
  3  5  1  0  0  0
  4  6  1  0  0  0
  4  7  1  0  0  0
  4 17  1  0  0  0
  5  8  1  0  0  0
  5  9  2  0  0  0
  6 10  1  0  0  0
  6 11  2  0  0  0
  7 12  1  0  0  0
  7 13  2  0  0  0
  8 10  2  0  0  0
  8 18  1  0  0  0
  9 11  1  0  0  0
  9 19  1  0  0  0
 10 20  1  0  0  0
 11 21  1  0  0  0
 12 14  2  0  0  0
 12 22  1  0  0  0
 13 15  1  0  0  0
 13 23  1  0  0  0
 14 16  1  0  0  0
 14 24  1  0  0  0
 15 16  2  0  0  0
 15 25  1  0  0  0
 16 26  1  0  0  0
M  END
> <EXTREG>
Molecule 1

> <# Confs.>
1

> <LIC50>
0.678

> <Name>
Molecule 1

$$$$
  4-nitro-toluol
XX    ILIB04271811163D

 18 18  0  0  1  0              1 V2000
   -2.4961   -1.0557   -0.0112 O   0  0  0  0  0
   -2.4961    1.0571   -0.0080 O   0  0  0  0  0
    4.2266    1.3447    0.0120 O   0  0  0  0  0
   -1.8862    0.0128   -0.0080 N   0  2  0  0  0
   -0.5532    0.0096   -0.0080 C   0  0  0  0  0
    2.2461    0.0096    0.0080 C   0  0  0  0  0
    0.1465   -1.2129   -0.0080 C   0  0  0  0  0
    0.1465    1.2129    0.0078 C   0  0  0  0  0
    1.5464   -1.2119    0.0078 C   0  0  0  0  0
    1.5464    1.2129    0.0080 C   0  0  0  0  0
    3.7510    0.0096    0.0084 C   0  0  0  0  0
    5.2637    1.3345    0.0148 H   0  0  0  0  0
   -0.3951   -2.1514   -0.0144 H   0  0  0  0  0
   -0.3954    2.1514    0.0078 H   0  0  0  0  0
    2.0889   -2.1504    0.0078 H   0  0  0  0  0
    2.0879    2.1514    0.0144 H   0  0  0  0  0
    4.1133   -0.5139    0.8928 H   0  0  0  0  0
    4.1152   -0.5132   -0.8887 H   0  0  0  0  0
  1  4  2  0  0  0
  2  4  2  0  0  0
  3 11  1  0  0  0
  3 12  1  0  0  0
  4  5  1  0  0  0
  5  7  1  0  0  0
  5  8  2  0  0  0
  6  9  1  0  0  0
  6 10  2  0  0  0
  6 11  1  0  0  0
  7  9  2  0  0  0
  7 13  1  0  0  0
  8 10  1  0  0  0
  8 14  1  0  0  0
  9 15  1  0  0  0
 10 16  1  0  0  0
 11 17  1  0  0  0
 11 18  1  0  0  0
M  END
> <EXTREG>
4-nitro-toluol

> <# Confs.>
1

> <LIC50>
1.886

> <Name>
4-nitro-toluol

$$$$
  4-nitro-benzoic_acid
XX    ILIB04271811163D

 17 17  0  0  1  0              1 V2000
   -2.4961   -1.0557   -0.0112 O   0  0  0  0  0
   -2.4961    1.0571   -0.0080 O   0  0  0  0  0
    4.3223   -1.0513    0.0080 O   0  0  0  0  0
    4.4277    1.2354    0.0124 O   0  0  0  0  0
   -1.8862    0.0128   -0.0080 N   0  2  0  0  0
   -0.5532    0.0096   -0.0080 C   0  0  0  0  0
    2.2461    0.0096    0.0080 C   0  0  0  0  0
    0.1465   -1.2129   -0.0080 C   0  0  0  0  0
    0.1465    1.2129    0.0078 C   0  0  0  0  0
    1.5464   -1.2119    0.0078 C   0  0  0  0  0
    1.5464    1.2129    0.0080 C   0  0  0  0  0
    3.7158    0.0096    0.0080 C   0  0  0  0  0
    5.4473    1.0356    0.0148 H   0  0  0  0  0
   -0.3951   -2.1514   -0.0144 H   0  0  0  0  0
   -0.3954    2.1514    0.0078 H   0  0  0  0  0
    2.0889   -2.1504    0.0078 H   0  0  0  0  0
    2.0879    2.1514    0.0144 H   0  0  0  0  0
  1  5  2  0  0  0
  2  5  2  0  0  0
  3 12  2  0  0  0
  4 12  1  0  0  0
  4 13  1  0  0  0
  5  6  1  0  0  0
  6  8  1  0  0  0
  6  9  2  0  0  0
  7 10  1  0  0  0
  7 11  2  0  0  0
  7 12  1  0  0  0
  8 10  2  0  0  0
  8 14  1  0  0  0
  9 11  1  0  0  0
  9 15  1  0  0  0
 10 16  1  0  0  0
 11 17  1  0  0  0
M  END
> <EXTREG>
4-nitro-benzoic_acid

> <# Confs.>
1

> <LIC50>
0.101

> <Name>
4-nitro-benzoic_acid

$$$$
  unknown2
XX    ILIB04271811163D

 20 20  0  0  1  0              1 V2000
   -2.4961   -1.0557   -0.0112 O   0  0  0  0  0
   -2.4961    1.0571   -0.0080 O   0  0  0  0  0
    4.3223   -1.0513    0.0080 O   0  0  0  0  0
    4.4277    1.2354    0.0124 O   0  0  0  0  0
   -1.8862    0.0128   -0.0080 N   0  2  0  0  0
   -0.5532    0.0096   -0.0080 C   0  0  0  0  0
    2.2461    0.0096    0.0080 C   0  0  0  0  0
    0.1465   -1.2129   -0.0080 C   0  0  0  0  0
    0.1465    1.2129    0.0078 C   0  0  0  0  0
    1.5464   -1.2119    0.0078 C   0  0  0  0  0
    1.5464    1.2129    0.0080 C   0  0  0  0  0
    3.7158    0.0096    0.0080 C   0  0  0  0  0
    5.8301    0.9749    0.0080 C   0  0  0  0  0
   -0.3951   -2.1514   -0.0144 H   0  0  0  0  0
   -0.3954    2.1514    0.0078 H   0  0  0  0  0
    2.0889   -2.1504    0.0078 H   0  0  0  0  0
    2.0879    2.1514    0.0144 H   0  0  0  0  0
    6.0938    0.4025    0.8945 H   0  0  0  0  0
    6.0957    0.4032   -0.8867 H   0  0  0  0  0
    6.3770    1.9194    0.0094 H   0  0  0  0  0
  1  5  2  0  0  0
  2  5  2  0  0  0
  3 12  2  0  0  0
  4 12  1  0  0  0
  4 13  1  0  0  0
  5  6  1  0  0  0
  6  8  1  0  0  0
  6  9  2  0  0  0
  7 10  1  0  0  0
  7 11  2  0  0  0
  7 12  1  0  0  0
  8 10  2  0  0  0
  8 14  1  0  0  0
  9 11  1  0  0  0
  9 15  1  0  0  0
 10 16  1  0  0  0
 11 17  1  0  0  0
 13 18  1  0  0  0
 13 19  1  0  0  0
 13 20  1  0  0  0
M  END
> <EXTREG>
unknown2

> <# Confs.>
1

> <LIC50>
-0.862

> <Name>
unknown2

$$$$
  unknown3
XX    ILIB04271811163D

 23 23  0  0  1  0              1 V2000
   -2.4844   -1.0229   -0.0112 O   0  0  0  0  0
   -2.4844    1.0898   -0.0080 O   0  0  0  0  0
    4.3340    1.0850    0.0116 O   0  0  0  0  0
    4.4395   -1.2017    0.0084 O   0  0  0  0  0
   -1.8745    0.0333   -0.0080 N   0  2  0  0  0
   -0.5417    0.0331   -0.0080 C   0  0  0  0  0
    2.2578    0.0331    0.0080 C   0  0  0  0  0
    0.1581   -1.1802   -0.0080 C   0  0  0  0  0
    0.1581    1.2451    0.0078 C   0  0  0  0  0
    1.5576   -1.1792    0.0078 C   0  0  0  0  0
    1.5576    1.2451    0.0080 C   0  0  0  0  0
    3.7275    0.0331    0.0084 C   0  0  0  0  0
    5.8418   -0.9412    0.0128 C   0  0  0  0  0
    6.6113   -2.2715    0.0128 C   0  0  0  0  0
   -0.3837   -2.1191   -0.0144 H   0  0  0  0  0
   -0.3838    2.1836    0.0078 H   0  0  0  0  0
    2.0996   -2.1172    0.0078 H   0  0  0  0  0
    2.0996    2.1836    0.0144 H   0  0  0  0  0
    6.1055   -0.3688   -0.8870 H   0  0  0  0  0
    6.1055   -0.3694    0.8943 H   0  0  0  0  0
    6.3457   -2.8447    0.8936 H   0  0  0  0  0
    6.3477   -2.8438   -0.8879 H   0  0  0  0  0
    7.6836   -2.0723    0.0080 H   0  0  0  0  0
  1  5  2  0  0  0
  2  5  2  0  0  0
  3 12  2  0  0  0
  4 12  1  0  0  0
  4 13  1  0  0  0
  5  6  1  0  0  0
  6  8  1  0  0  0
  6  9  2  0  0  0
  7 10  1  0  0  0
  7 11  2  0  0  0
  7 12  1  0  0  0
  8 10  2  0  0  0
  8 15  1  0  0  0
  9 11  1  0  0  0
  9 16  1  0  0  0
 10 17  1  0  0  0
 11 18  1  0  0  0
 13 14  1  0  0  0
 13 19  1  0  0  0
 13 20  1  0  0  0
 14 21  1  0  0  0
 14 22  1  0  0  0
 14 23  1  0  0  0
M  END
> <EXTREG>
unknown3

> <# Confs.>
1

> <LIC50>
0.398

> <Name>
unknown3

$$$$
  4-nitro-benzamide
XX    ILIB04271811163D

 18 18  0  0  1  0              1 V2000
   -2.4531   -0.9236   -0.0108 O   0  0  0  0  0
   -2.4531    1.1895   -0.0152 O   0  0  0  0  0
    4.3652   -0.9192    0.0084 O   0  0  0  0  0
   -1.8433    0.1329   -0.0152 N   0  2  0  0  0
    4.4258    1.2871    0.0124 N   0  0  0  0  0
   -0.5103    0.1327   -0.0144 C   0  0  0  0  0
    2.2891    0.1327    0.0088 C   0  0  0  0  0
    0.1896   -1.0806   -0.0144 C   0  0  0  0  0
    0.1896    1.3447    0.0128 C   0  0  0  0  0
    1.5894   -1.0796    0.0128 C   0  0  0  0  0
    1.5894    1.3447    0.0088 C   0  0  0  0  0
    3.7588    0.1328    0.0084 C   0  0  0  0  0
    3.9219    2.1592    0.0124 H   0  0  0  0  0
    5.4336    1.2871    0.0152 H   0  0  0  0  0
   -0.3523   -2.0195   -0.0136 H   0  0  0  0  0
   -0.3523    2.2832    0.0128 H   0  0  0  0  0
    2.1318   -2.0176    0.0128 H   0  0  0  0  0
    2.1309    2.2832    0.0152 H   0  0  0  0  0
  1  4  2  0  0  0
  2  4  2  0  0  0
  3 12  2  0  0  0
  4  6  1  0  0  0
  5 12  1  0  0  0
  5 13  1  0  0  0
  5 14  1  0  0  0
  6  8  1  0  0  0
  6  9  2  0  0  0
  7 10  1  0  0  0
  7 11  2  0  0  0
  7 12  1  0  0  0
  8 10  2  0  0  0
  8 15  1  0  0  0
  9 11  1  0  0  0
  9 16  1  0  0  0
 10 17  1  0  0  0
 11 18  1  0  0  0
M  END
> <EXTREG>
4-nitro-benzamide

> <# Confs.>
1

> <LIC50>
0.71

> <Name>
4-nitro-benzamide

$$$$
  4-nitro-benaldehyde
XX    ILIB04271811163D

 16 16  0  0  1  0              1 V2000
   -2.4961   -1.0557   -0.0112 O   0  0  0  0  0
   -2.4961    1.0571   -0.0080 O   0  0  0  0  0
    4.3223    1.0527    0.0116 O   0  0  0  0  0
   -1.8862    0.0128   -0.0080 N   0  2  0  0  0
   -0.5532    0.0096   -0.0080 C   0  0  0  0  0
    2.2461    0.0096    0.0080 C   0  0  0  0  0
    0.1465   -1.2129   -0.0080 C   0  0  0  0  0
    0.1465    1.2129    0.0078 C   0  0  0  0  0
    1.5464   -1.2119    0.0078 C   0  0  0  0  0
    1.5464    1.2129    0.0080 C   0  0  0  0  0
    3.7158    0.0096    0.0080 C   0  0  0  0  0
   -0.3951   -2.1514   -0.0144 H   0  0  0  0  0
   -0.3954    2.1514    0.0078 H   0  0  0  0  0
    2.0889   -2.1504    0.0078 H   0  0  0  0  0
    2.0879    2.1514    0.0144 H   0  0  0  0  0
    4.2617   -0.9441    0.0080 H   0  0  0  0  0
  1  4  2  0  0  0
  2  4  2  0  0  0
  3 11  2  0  0  0
  4  5  1  0  0  0
  5  7  1  0  0  0
  5  8  2  0  0  0
  6  9  1  0  0  0
  6 10  2  0  0  0
  6 11  1  0  0  0
  7  9  2  0  0  0
  7 12  1  0  0  0
  8 10  1  0  0  0
  8 13  1  0  0  0
  9 14  1  0  0  0
 10 15  1  0  0  0
 11 16  1  0  0  0
M  END
> <EXTREG>
4-nitro-benaldehyde

> <# Confs.>
1

> <LIC50>
0.179

> <Name>
4-nitro-benaldehyde

$$$$
  1-4-dinitrobenzene
XX    ILIB04271811163D

 16 16  0  0  1  0              1 V2000
    4.1895   -1.0557    0.0080 O   0  0  0  0  0
    4.1895    1.0566    0.0112 O   0  0  0  0  0
   -2.4961   -1.0557   -0.0112 O   0  0  0  0  0
   -2.4961    1.0571   -0.0080 O   0  0  0  0  0
    3.5791    0.0096    0.0080 N   0  2  0  0  0
   -1.8862    0.0128   -0.0080 N   0  2  0  0  0
    2.2461    0.0096    0.0080 C   0  0  0  0  0
   -0.5532    0.0096   -0.0080 C   0  0  0  0  0
    1.5464   -1.2119    0.0078 C   0  0  0  0  0
    0.1465   -1.2129   -0.0080 C   0  0  0  0  0
    1.5464    1.2129    0.0080 C   0  0  0  0  0
    0.1465    1.2129    0.0078 C   0  0  0  0  0
    2.0889   -2.1504    0.0078 H   0  0  0  0  0
   -0.3951   -2.1514   -0.0144 H   0  0  0  0  0
    2.0879    2.1514    0.0144 H   0  0  0  0  0
   -0.3954    2.1514    0.0078 H   0  0  0  0  0
  1  5  2  0  0  0
  2  5  2  0  0  0
  3  6  2  0  0  0
  4  6  2  0  0  0
  5  7  1  0  0  0
  6  8  1  0  0  0
  7  9  1  0  0  0
  7 11  2  0  0  0
  8 10  1  0  0  0
  8 12  2  0  0  0
  9 10  2  0  0  0
  9 13  1  0  0  0
 10 14  1  0  0  0
 11 12  1  0  0  0
 11 15  1  0  0  0
 12 16  1  0  0  0
M  END
> <EXTREG>
1-4-dinitrobenzene

> <# Confs.>
1

> <LIC50>
0.203

> <Name>
1-4-dinitrobenzene

$$$$
  4-cyanopyridine
XX    ILIB04271811163D

 12 12  0  0  1  0              1 V2000
    2.5361   -0.4753    0.0078 N   0  0  0  0  0
   -2.5654    1.3521    0.0078 N   0  0  0  0  0
    2.3193    0.7693    0.0078 C   0  0  0  0  0
    1.5186   -1.3408    0.0078 C   0  0  0  0  0
   -0.0692    0.4786    0.0078 C   0  0  0  0  0
    0.9651    1.3296    0.0078 C   0  0  0  0  0
    0.2347   -0.9543    0.0078 C   0  0  0  0  0
   -1.4893    0.9756    0.0078 C   0  0  0  0  0
    3.1650    1.4468    0.0078 H   0  0  0  0  0
    1.7407   -2.4014    0.0078 H   0  0  0  0  0
    0.8052    2.4014    0.0078 H   0  0  0  0  0
   -0.5630   -1.6880    0.0078 H   0  0  0  0  0
  1  3  2  0  0  0
  1  4  1  0  0  0
  2  8  3  0  0  0
  3  6  1  0  0  0
  3  9  1  0  0  0
  4  7  2  0  0  0
  4 10  1  0  0  0
  5  6  2  0  0  0
  5  7  1  0  0  0
  5  8  1  0  0  0
  6 11  1  0  0  0
  7 12  1  0  0  0
M  END
> <EXTREG>
4-cyanopyridine

> <# Confs.>
1

> <LIC50>
-0.82

> <Name>
4-cyanopyridine

$$$$
  2-cyanopyridine
XX    ILIB04271811163D

 12 12  0  0  1  0              1 V2000
    1.4072   -0.4697    0.0078 N   0  0  0  0  0
    3.2549    2.4277    0.0078 N   0  0  0  0  0
    1.1909    0.7747    0.0078 C   0  0  0  0  0
    0.3903   -1.3354    0.0078 C   0  0  0  0  0
   -0.1633    1.3354    0.0078 C   0  0  0  0  0
   -0.8936   -0.9487    0.0078 C   0  0  0  0  0
   -1.1973    0.4843    0.0078 C   0  0  0  0  0
    2.3652    1.7153    0.0078 C   0  0  0  0  0
    0.6121   -2.3965    0.0078 H   0  0  0  0  0
   -0.3231    2.4072    0.0078 H   0  0  0  0  0
   -1.6914   -1.6821    0.0078 H   0  0  0  0  0
   -2.2207    0.8423    0.0078 H   0  0  0  0  0
  1  3  2  0  0  0
  1  4  1  0  0  0
  2  8  3  0  0  0
  3  5  1  0  0  0
  3  8  1  0  0  0
  4  6  2  0  0  0
  4  9  1  0  0  0
  5  7  2  0  0  0
  5 10  1  0  0  0
  6  7  1  0  0  0
  6 11  1  0  0  0
  7 12  1  0  0  0
M  END
> <EXTREG>
2-cyanopyridine

> <# Confs.>
1

> <LIC50>
-0.79

> <Name>
2-cyanopyridine

$$$$
  3-cyanopyridine
XX    ILIB04271811163D

 12 12  0  0  1  0              1 V2000
    2.5361   -0.4753    0.0078 N   0  0  0  0  0
    0.5750    3.9453    0.0078 N   0  0  0  0  0
    2.3193    0.7693    0.0078 C   0  0  0  0  0
    1.5186   -1.3408    0.0078 C   0  0  0  0  0
    0.9651    1.3296    0.0078 C   0  0  0  0  0
    0.2347   -0.9543    0.0078 C   0  0  0  0  0
   -0.0692    0.4786    0.0078 C   0  0  0  0  0
    0.7432    2.8184    0.0078 C   0  0  0  0  0
    3.1650    1.4468    0.0078 H   0  0  0  0  0
    1.7407   -2.4014    0.0078 H   0  0  0  0  0
   -0.5630   -1.6880    0.0078 H   0  0  0  0  0
   -1.0923    0.8367    0.0078 H   0  0  0  0  0
  1  3  2  0  0  0
  1  4  1  0  0  0
  2  8  3  0  0  0
  3  5  1  0  0  0
  3  9  1  0  0  0
  4  6  2  0  0  0
  4 10  1  0  0  0
  5  7  2  0  0  0
  5  8  1  0  0  0
  6  7  1  0  0  0
  6 11  1  0  0  0
  7 12  1  0  0  0
M  END
> <EXTREG>
3-cyanopyridine

> <# Confs.>
1

> <LIC50>
-0.74

> <Name>
3-cyanopyridine

$$$$
  4-cyanoaniline
XX    ILIB04271811163D

 15 15  0  0  1  0              1 V2000
   -2.7324    0.0112   -0.0080 N   0  0  0  0  0
    4.0449    0.0080    0.0116 N   0  0  0  0  0
   -1.3999    0.0080   -0.0080 C   0  0  0  0  0
    1.3999    0.0080    0.0080 C   0  0  0  0  0
   -0.7000   -1.2129   -0.0080 C   0  0  0  0  0
   -0.7000    1.2129    0.0078 C   0  0  0  0  0
    0.7000   -1.2114    0.0078 C   0  0  0  0  0
    0.7000    1.2129    0.0080 C   0  0  0  0  0
    2.9043    0.0080    0.0084 C   0  0  0  0  0
   -3.2363   -0.8721   -0.0108 H   0  0  0  0  0
   -3.2363    0.8738   -0.0152 H   0  0  0  0  0
   -1.2417   -2.1514   -0.0144 H   0  0  0  0  0
   -1.2417    2.1514    0.0078 H   0  0  0  0  0
    1.2422   -2.1504    0.0078 H   0  0  0  0  0
    1.2417    2.1514    0.0144 H   0  0  0  0  0
  1  3  1  0  0  0
  1 10  1  0  0  0
  1 11  1  0  0  0
  2  9  3  0  0  0
  3  5  1  0  0  0
  3  6  2  0  0  0
  4  7  1  0  0  0
  4  8  2  0  0  0
  4  9  1  0  0  0
  5  7  2  0  0  0
  5 12  1  0  0  0
  6  8  1  0  0  0
  6 13  1  0  0  0
  7 14  1  0  0  0
  8 15  1  0  0  0
M  END
> <EXTREG>
4-cyanoaniline

> <# Confs.>
1

> <LIC50>
0.25

> <Name>
4-cyanoaniline

$$$$
  2-cyanoaniline
XX    ILIB04271811163D

 15 15  0  0  1  0              1 V2000
    1.3667   -2.3652    0.0078 N   0  0  0  0  0
    4.0449    0.0080    0.0116 N   0  0  0  0  0
    0.7000   -1.2114    0.0078 C   0  0  0  0  0
    1.3999    0.0080    0.0080 C   0  0  0  0  0
   -0.7000   -1.2129   -0.0080 C   0  0  0  0  0
    0.7000    1.2129    0.0080 C   0  0  0  0  0
   -1.3999    0.0080   -0.0080 C   0  0  0  0  0
   -0.7000    1.2129    0.0078 C   0  0  0  0  0
    2.9043    0.0080    0.0084 C   0  0  0  0  0
    0.8630   -3.2383   -0.0112 H   0  0  0  0  0
    2.3740   -2.3652    0.0112 H   0  0  0  0  0
   -1.2417   -2.1514   -0.0144 H   0  0  0  0  0
    1.2417    2.1514    0.0144 H   0  0  0  0  0
   -2.4834    0.0112   -0.0144 H   0  0  0  0  0
   -1.2417    2.1514    0.0078 H   0  0  0  0  0
  1  3  1  0  0  0
  1 10  1  0  0  0
  1 11  1  0  0  0
  2  9  3  0  0  0
  3  4  1  0  0  0
  3  5  2  0  0  0
  4  6  2  0  0  0
  4  9  1  0  0  0
  5  7  1  0  0  0
  5 12  1  0  0  0
  6  8  1  0  0  0
  6 13  1  0  0  0
  7  8  2  0  0  0
  7 14  1  0  0  0
  8 15  1  0  0  0
M  END
> <EXTREG>
2-cyanoaniline

> <# Confs.>
1

> <LIC50>
-0.5

> <Name>
2-cyanoaniline

$$$$
  3-cyanoaniline
XX    ILIB04271811163D

 15 15  0  0  1  0              1 V2000
   -1.3662   -2.3672   -0.0080 N   0  0  0  0  0
    4.0449    0.0080    0.0116 N   0  0  0  0  0
   -0.7000   -1.2129   -0.0080 C   0  0  0  0  0
    1.3999    0.0080    0.0080 C   0  0  0  0  0
    0.7000   -1.2114    0.0078 C   0  0  0  0  0
   -1.3999    0.0080   -0.0080 C   0  0  0  0  0
    0.7000    1.2129    0.0080 C   0  0  0  0  0
   -0.7000    1.2129    0.0078 C   0  0  0  0  0
    2.9043    0.0080    0.0084 C   0  0  0  0  0
   -0.8621   -3.2402   -0.0080 H   0  0  0  0  0
   -2.3740   -2.3672   -0.0108 H   0  0  0  0  0
    1.2422   -2.1504    0.0078 H   0  0  0  0  0
   -2.4834    0.0112   -0.0144 H   0  0  0  0  0
    1.2417    2.1514    0.0144 H   0  0  0  0  0
   -1.2417    2.1514    0.0078 H   0  0  0  0  0
  1  3  1  0  0  0
  1 10  1  0  0  0
  1 11  1  0  0  0
  2  9  3  0  0  0
  3  5  2  0  0  0
  3  6  1  0  0  0
  4  5  1  0  0  0
  4  7  2  0  0  0
  4  9  1  0  0  0
  5 12  1  0  0  0
  6  8  2  0  0  0
  6 13  1  0  0  0
  7  8  1  0  0  0
  7 14  1  0  0  0
  8 15  1  0  0  0
M  END
> <EXTREG>
3-cyanoaniline

> <# Confs.>
1

> <LIC50>
-0.47

> <Name>
3-cyanoaniline

$$$$
  4-cyanophenol
XX    ILIB04271811163D

 14 14  0  0  1  0              1 V2000
   -2.7598    0.0112   -0.0080 O   0  0  0  0  0
    4.0449    0.0080    0.0116 N   0  0  0  0  0
   -1.3999    0.0080   -0.0080 C   0  0  0  0  0
    1.3999    0.0080    0.0080 C   0  0  0  0  0
   -0.7000   -1.2129   -0.0080 C   0  0  0  0  0
   -0.7000    1.2129    0.0078 C   0  0  0  0  0
    0.7000   -1.2114    0.0078 C   0  0  0  0  0
    0.7000    1.2129    0.0080 C   0  0  0  0  0
    2.9043    0.0080    0.0084 C   0  0  0  0  0
   -3.0957    0.9827   -0.0144 H   0  0  0  0  0
   -1.2417   -2.1514   -0.0144 H   0  0  0  0  0
   -1.2417    2.1514    0.0078 H   0  0  0  0  0
    1.2422   -2.1504    0.0078 H   0  0  0  0  0
    1.2417    2.1514    0.0144 H   0  0  0  0  0
  1  3  1  0  0  0
  1 10  1  0  0  0
  2  9  3  0  0  0
  3  5  1  0  0  0
  3  6  2  0  0  0
  4  7  1  0  0  0
  4  8  2  0  0  0
  4  9  1  0  0  0
  5  7  2  0  0  0
  5 11  1  0  0  0
  6  8  1  0  0  0
  6 12  1  0  0  0
  7 13  1  0  0  0
  8 14  1  0  0  0
M  END
> <EXTREG>
4-cyanophenol

> <# Confs.>
1

> <LIC50>
0.52

> <Name>
4-cyanophenol

$$$$
  2-cyanophenol
XX    ILIB04271811163D

 14 14  0  0  1  0              1 V2000
    1.3804   -2.3887    0.0078 O   0  0  0  0  0
    4.0449    0.0080    0.0116 N   0  0  0  0  0
    0.7000   -1.2114    0.0078 C   0  0  0  0  0
    1.3999    0.0080    0.0080 C   0  0  0  0  0
   -0.7000   -1.2129   -0.0080 C   0  0  0  0  0
    0.7000    1.2129    0.0080 C   0  0  0  0  0
   -1.3999    0.0080   -0.0080 C   0  0  0  0  0
   -0.7000    1.2129    0.0078 C   0  0  0  0  0
    2.9043    0.0080    0.0084 C   0  0  0  0  0
    2.3984   -2.1885    0.0128 H   0  0  0  0  0
   -1.2417   -2.1514   -0.0144 H   0  0  0  0  0
    1.2417    2.1514    0.0144 H   0  0  0  0  0
   -2.4834    0.0112   -0.0144 H   0  0  0  0  0
   -1.2417    2.1514    0.0078 H   0  0  0  0  0
  1  3  1  0  0  0
  1 10  1  0  0  0
  2  9  3  0  0  0
  3  4  1  0  0  0
  3  5  2  0  0  0
  4  6  2  0  0  0
  4  9  1  0  0  0
  5  7  1  0  0  0
  5 11  1  0  0  0
  6  8  1  0  0  0
  6 12  1  0  0  0
  7  8  2  0  0  0
  7 13  1  0  0  0
  8 14  1  0  0  0
M  END
> <EXTREG>
2-cyanophenol

> <# Confs.>
1

> <LIC50>
0.034

> <Name>
2-cyanophenol

$$$$
  3-cyanophenol
XX    ILIB04271811163D

 14 14  0  0  1  0              1 V2000
   -1.3794   -2.3906   -0.0080 O   0  0  0  0  0
    4.0449    0.0080    0.0116 N   0  0  0  0  0
   -0.7000   -1.2129   -0.0080 C   0  0  0  0  0
    1.3999    0.0080    0.0080 C   0  0  0  0  0
    0.7000   -1.2114    0.0078 C   0  0  0  0  0
   -1.3999    0.0080   -0.0080 C   0  0  0  0  0
    0.7000    1.2129    0.0080 C   0  0  0  0  0
   -0.7000    1.2129    0.0078 C   0  0  0  0  0
    2.9043    0.0080    0.0084 C   0  0  0  0  0
   -2.3975   -2.1904   -0.0104 H   0  0  0  0  0
    1.2422   -2.1504    0.0078 H   0  0  0  0  0
   -2.4834    0.0112   -0.0144 H   0  0  0  0  0
    1.2417    2.1514    0.0144 H   0  0  0  0  0
   -1.2417    2.1514    0.0078 H   0  0  0  0  0
  1  3  1  0  0  0
  1 10  1  0  0  0
  2  9  3  0  0  0
  3  5  2  0  0  0
  3  6  1  0  0  0
  4  5  1  0  0  0
  4  7  2  0  0  0
  4  9  1  0  0  0
  5 11  1  0  0  0
  6  8  2  0  0  0
  6 12  1  0  0  0
  7  8  1  0  0  0
  7 13  1  0  0  0
  8 14  1  0  0  0
M  END
> <EXTREG>
3-cyanophenol

> <# Confs.>
1

> <LIC50>
-0.065

> <Name>
3-cyanophenol

$$$$
  1-cyanonaphthalene
XX    ILIB04271811163D

 19 20  0  0  1  0              1 V2000
   -3.5928   -2.2188   -0.0096 N   0  0  0  0  0
   -0.6758   -0.1808   -0.0080 C   0  0  0  0  0
    0.6763    0.1815    0.0080 C   0  0  0  0  0
   -1.0386   -1.5337   -0.0080 C   0  0  0  0  0
   -1.6655    0.8091   -0.0120 C   0  0  0  0  0
    1.6660   -0.8083    0.0120 C   0  0  0  0  0
    1.0386    1.5337    0.0080 C   0  0  0  0  0
   -0.0482   -2.5225    0.0080 C   0  0  0  0  0
    1.3037   -2.1602    0.0120 C   0  0  0  0  0
   -1.3032    2.1611   -0.0120 C   0  0  0  0  0
    0.0489    2.5234   -0.0080 C   0  0  0  0  0
   -2.4922   -1.9233   -0.0128 C   0  0  0  0  0
   -2.7119    0.5286   -0.0092 H   0  0  0  0  0
    2.7129   -0.5278    0.0092 H   0  0  0  0  0
    2.0850    1.8140    0.0104 H   0  0  0  0  0
   -0.3284   -3.5693    0.0080 H   0  0  0  0  0
    2.0703   -2.9268    0.0092 H   0  0  0  0  0
   -2.0693    2.9277   -0.0092 H   0  0  0  0  0
    0.3295    3.5703   -0.0080 H   0  0  0  0  0
  1 12  3  0  0  0
  2  3  2  0  0  0
  2  4  1  0  0  0
  2  5  1  0  0  0
  3  6  1  0  0  0
  3  7  1  0  0  0
  4  8  2  0  0  0
  4 12  1  0  0  0
  5 10  2  0  0  0
  5 13  1  0  0  0
  6  9  2  0  0  0
  6 14  1  0  0  0
  7 11  2  0  0  0
  7 15  1  0  0  0
  8  9  1  0  0  0
  8 16  1  0  0  0
  9 17  1  0  0  0
 10 11  1  0  0  0
 10 18  1  0  0  0
 11 19  1  0  0  0
M  END
> <EXTREG>
1-cyanonaphthalene

> <# Confs.>
1

> <LIC50>
0.69

> <Name>
1-cyanonaphthalene

$$$$
  4-nitrobenzonitrile
XX    ILIB04271811163D

 15 15  0  0  1  0              1 V2000
    3.3428   -1.0557    0.0080 O   0  0  0  0  0
    3.3428    1.0566    0.0112 O   0  0  0  0  0
    2.7324    0.0080    0.0080 N   0  2  0  0  0
   -4.0449    0.0080   -0.0116 N   0  0  0  0  0
    1.3999    0.0080    0.0080 C   0  0  0  0  0
   -1.3999    0.0080   -0.0080 C   0  0  0  0  0
    0.7000   -1.2114    0.0078 C   0  0  0  0  0
    0.7000    1.2129    0.0080 C   0  0  0  0  0
   -0.7000   -1.2129   -0.0080 C   0  0  0  0  0
   -0.7000    1.2129    0.0078 C   0  0  0  0  0
   -2.9043    0.0128   -0.0084 C   0  0  0  0  0
    1.2422   -2.1504    0.0078 H   0  0  0  0  0
    1.2417    2.1514    0.0144 H   0  0  0  0  0
   -1.2417   -2.1514   -0.0144 H   0  0  0  0  0
   -1.2417    2.1514    0.0078 H   0  0  0  0  0
  1  3  2  0  0  0
  2  3  2  0  0  0
  3  5  1  0  0  0
  4 11  3  0  0  0
  5  7  1  0  0  0
  5  8  2  0  0  0
  6  9  1  0  0  0
  6 10  2  0  0  0
  6 11  1  0  0  0
  7  9  2  0  0  0
  7 12  1  0  0  0
  8 10  1  0  0  0
  8 13  1  0  0  0
  9 14  1  0  0  0
 10 15  1  0  0  0
M  END
> <EXTREG>
4-nitrobenzonitrile

> <# Confs.>
1

> <LIC50>
0.57

> <Name>
4-nitrobenzonitrile

$$$$
  2-nitrobenzonitrile
XX    ILIB04271811163D

 15 15  0  0  1  0              1 V2000
    3.7334   -1.0557    0.0082 O   0  0  0  0  0
    3.7334    1.0566    0.0098 O   0  0  0  0  0
    3.1230    0.0096    0.0082 N   0  2  0  0  0
    2.4141   -3.5020    0.0084 N   0  0  0  0  0
    1.7905    0.0096    0.0124 C   0  0  0  0  0
    1.0908   -1.2114    0.0084 C   0  0  0  0  0
    1.0908    1.2129    0.0124 C   0  0  0  0  0
   -0.3090   -1.2129    0.0088 C   0  0  0  0  0
   -0.3090    1.2129    0.0084 C   0  0  0  0  0
   -1.0088    0.0096    0.0088 C   0  0  0  0  0
    1.8438   -2.5146    0.0084 C   0  0  0  0  0
    1.6328    2.1514    0.0156 H   0  0  0  0  0
   -0.8506   -2.1514    0.0096 H   0  0  0  0  0
   -0.8508    2.1514    0.0084 H   0  0  0  0  0
   -2.0928    0.0112    0.0096 H   0  0  0  0  0
  1  3  2  0  0  0
  2  3  2  0  0  0
  3  5  1  0  0  0
  4 11  3  0  0  0
  5  6  1  0  0  0
  5  7  2  0  0  0
  6  8  2  0  0  0
  6 11  1  0  0  0
  7  9  1  0  0  0
  7 12  1  0  0  0
  8 10  1  0  0  0
  8 13  1  0  0  0
  9 10  2  0  0  0
  9 14  1  0  0  0
 10 15  1  0  0  0
M  END
> <EXTREG>
2-nitrobenzonitrile

> <# Confs.>
1

> <LIC50>
1.08

> <Name>
2-nitrobenzonitrile

$$$$
  3-nitrobenzonitrile
XX    ILIB04271811163D

 15 15  0  0  1  0              1 V2000
    3.7334   -1.0557    0.0082 O   0  0  0  0  0
    3.7334    1.0566    0.0098 O   0  0  0  0  0
    3.1230    0.0096    0.0082 N   0  2  0  0  0
   -1.6309   -3.5029   -0.0128 N   0  0  0  0  0
    1.7905    0.0096    0.0124 C   0  0  0  0  0
   -0.3090   -1.2129    0.0088 C   0  0  0  0  0
    1.0908   -1.2114    0.0084 C   0  0  0  0  0
    1.0908    1.2129    0.0124 C   0  0  0  0  0
   -1.0088    0.0096    0.0088 C   0  0  0  0  0
   -0.3090    1.2129    0.0084 C   0  0  0  0  0
   -1.0610   -2.5156    0.0078 C   0  0  0  0  0
    1.6328   -2.1504    0.0084 H   0  0  0  0  0
    1.6328    2.1514    0.0156 H   0  0  0  0  0
   -2.0928    0.0112    0.0096 H   0  0  0  0  0
   -0.8508    2.1514    0.0084 H   0  0  0  0  0
  1  3  2  0  0  0
  2  3  2  0  0  0
  3  5  1  0  0  0
  4 11  3  0  0  0
  5  7  1  0  0  0
  5  8  2  0  0  0
  6  7  2  0  0  0
  6  9  1  0  0  0
  6 11  1  0  0  0
  7 12  1  0  0  0
  8 10  1  0  0  0
  8 13  1  0  0  0
  9 10  2  0  0  0
  9 14  1  0  0  0
 10 15  1  0  0  0
M  END
> <EXTREG>
3-nitrobenzonitrile

> <# Confs.>
1

> <LIC50>
0.45

> <Name>
3-nitrobenzonitrile

$$$$
  2-tolunitrile
XX    ILIB04271811163D

 16 16  0  0  1  0              1 V2000
   -1.6309   -3.5029   -0.0128 N   0  0  0  0  0
   -0.3090   -1.2129    0.0088 C   0  0  0  0  0
   -1.0088    0.0096    0.0088 C   0  0  0  0  0
    1.0908   -1.2114    0.0084 C   0  0  0  0  0
   -0.3090    1.2129    0.0084 C   0  0  0  0  0
    1.7905    0.0096    0.0124 C   0  0  0  0  0
    1.0908    1.2129    0.0124 C   0  0  0  0  0
   -1.0610   -2.5156    0.0078 C   0  0  0  0  0
   -2.5137    0.0128    0.0078 C   0  0  0  0  0
    1.6328   -2.1504    0.0084 H   0  0  0  0  0
   -0.8508    2.1514    0.0084 H   0  0  0  0  0
    2.8750    0.0080    0.0156 H   0  0  0  0  0
    1.6328    2.1514    0.0156 H   0  0  0  0  0
   -2.8770   -0.5129   -0.8911 H   0  0  0  0  0
   -2.8779   -0.5137    0.8901 H   0  0  0  0  0
   -2.8770    1.0293    0.0128 H   0  0  0  0  0
  1  8  3  0  0  0
  2  3  1  0  0  0
  2  4  2  0  0  0
  2  8  1  0  0  0
  3  5  2  0  0  0
  3  9  1  0  0  0
  4  6  1  0  0  0
  4 10  1  0  0  0
  5  7  1  0  0  0
  5 11  1  0  0  0
  6  7  2  0  0  0
  6 12  1  0  0  0
  7 13  1  0  0  0
  9 14  1  0  0  0
  9 15  1  0  0  0
  9 16  1  0  0  0
M  END
> <EXTREG>
2-tolunitrile

> <# Confs.>
1

> <LIC50>
-0.24

> <Name>
2-tolunitrile

$$$$
  32-tolunitrile
XX    ILIB04271811163D

 16 16  0  0  1  0              1 V2000
   -1.6309   -3.5029   -0.0128 N   0  0  0  0  0
   -0.3090   -1.2129    0.0088 C   0  0  0  0  0
   -0.3090    1.2129    0.0084 C   0  0  0  0  0
   -1.0088    0.0096    0.0088 C   0  0  0  0  0
    1.0908   -1.2114    0.0084 C   0  0  0  0  0
    1.0908    1.2129    0.0124 C   0  0  0  0  0
    1.7905    0.0096    0.0124 C   0  0  0  0  0
   -1.0610   -2.5156    0.0078 C   0  0  0  0  0
   -1.0610    2.5156    0.0084 C   0  0  0  0  0
   -2.0928    0.0112    0.0096 H   0  0  0  0  0
    1.6328   -2.1504    0.0084 H   0  0  0  0  0
    1.6328    2.1514    0.0156 H   0  0  0  0  0
    2.8750    0.0080    0.0156 H   0  0  0  0  0
   -1.6880    2.5742   -0.8889 H   0  0  0  0  0
   -1.6890    2.5732    0.8923 H   0  0  0  0  0
   -0.3524    3.3447    0.0116 H   0  0  0  0  0
  1  8  3  0  0  0
  2  4  1  0  0  0
  2  5  2  0  0  0
  2  8  1  0  0  0
  3  4  2  0  0  0
  3  6  1  0  0  0
  3  9  1  0  0  0
  4 10  1  0  0  0
  5  7  1  0  0  0
  5 11  1  0  0  0
  6  7  2  0  0  0
  6 12  1  0  0  0
  7 13  1  0  0  0
  9 14  1  0  0  0
  9 15  1  0  0  0
  9 16  1  0  0  0
M  END
> <EXTREG>
32-tolunitrile

> <# Confs.>
1

> <LIC50>
-0.25

> <Name>
32-tolunitrile

$$$$
  1-2-dicyanobenzene
XX    ILIB04271811163D

 14 14  0  0  1  0              1 V2000
   -1.6309   -3.5029   -0.0128 N   0  0  0  0  0
   -3.6533    0.0080   -0.0128 N   0  0  0  0  0
   -0.3090   -1.2129    0.0088 C   0  0  0  0  0
   -1.0088    0.0096    0.0088 C   0  0  0  0  0
    1.0908   -1.2114    0.0084 C   0  0  0  0  0
   -0.3090    1.2129    0.0084 C   0  0  0  0  0
    1.7905    0.0096    0.0124 C   0  0  0  0  0
    1.0908    1.2129    0.0124 C   0  0  0  0  0
   -1.0610   -2.5156    0.0078 C   0  0  0  0  0
   -2.5137    0.0128    0.0078 C   0  0  0  0  0
    1.6328   -2.1504    0.0084 H   0  0  0  0  0
   -0.8508    2.1514    0.0084 H   0  0  0  0  0
    2.8750    0.0080    0.0156 H   0  0  0  0  0
    1.6328    2.1514    0.0156 H   0  0  0  0  0
  1  9  3  0  0  0
  2 10  3  0  0  0
  3  4  1  0  0  0
  3  5  2  0  0  0
  3  9  1  0  0  0
  4  6  2  0  0  0
  4 10  1  0  0  0
  5  7  1  0  0  0
  5 11  1  0  0  0
  6  8  1  0  0  0
  6 12  1  0  0  0
  7  8  2  0  0  0
  7 13  1  0  0  0
  8 14  1  0  0  0
M  END
> <EXTREG>
1-2-dicyanobenzene

> <# Confs.>
1

> <LIC50>
-0.34

> <Name>
1-2-dicyanobenzene

$$$$
  4-tolunitrile
XX    ILIB04271811163D

 16 16  0  0  1  0              1 V2000
   -1.6309   -3.5029   -0.0128 N   0  0  0  0  0
   -0.3090   -1.2129    0.0088 C   0  0  0  0  0
    1.0908    1.2129    0.0124 C   0  0  0  0  0
    1.0908   -1.2114    0.0084 C   0  0  0  0  0
   -1.0088    0.0096    0.0088 C   0  0  0  0  0
    1.7905    0.0096    0.0124 C   0  0  0  0  0
   -0.3090    1.2129    0.0084 C   0  0  0  0  0
   -1.0610   -2.5156    0.0078 C   0  0  0  0  0
    1.8433    2.5156    0.0084 C   0  0  0  0  0
    1.6328   -2.1504    0.0084 H   0  0  0  0  0
   -2.0928    0.0112    0.0096 H   0  0  0  0  0
    2.8750    0.0080    0.0156 H   0  0  0  0  0
   -0.8508    2.1514    0.0084 H   0  0  0  0  0
    2.4697    2.5732    0.8953 H   0  0  0  0  0
    2.4707    2.5742   -0.8860 H   0  0  0  0  0
    1.1343    3.3447    0.0080 H   0  0  0  0  0
  1  8  3  0  0  0
  2  4  2  0  0  0
  2  5  1  0  0  0
  2  8  1  0  0  0
  3  6  2  0  0  0
  3  7  1  0  0  0
  3  9  1  0  0  0
  4  6  1  0  0  0
  4 10  1  0  0  0
  5  7  2  0  0  0
  5 11  1  0  0  0
  6 12  1  0  0  0
  7 13  1  0  0  0
  9 14  1  0  0  0
  9 15  1  0  0  0
  9 16  1  0  0  0
M  END
> <EXTREG>
4-tolunitrile

> <# Confs.>
1

> <LIC50>
-0.1

> <Name>
4-tolunitrile

$$$$
  4-biphenylcarbonitrile
XX    ILIB04271811163D

 23 24  0  0  1  0              1 V2000
    4.6699   -0.0080    0.0120 N   0  0  0  0  0
   -0.8699    0.0080    0.0080 C   0  0  0  0  0
   -2.2695    0.0080    0.0080 C   0  0  0  0  0
    1.9297    0.0078    0.0080 C   0  0  0  0  0
   -0.1698    1.2134    0.0120 C   0  0  0  0  0
   -0.1702   -1.2119    0.0080 C   0  0  0  0  0
   -2.9697   -1.2114    0.0078 C   0  0  0  0  0
   -2.9697    1.2129    0.0080 C   0  0  0  0  0
    1.2300    1.2124    0.0080 C   0  0  0  0  0
    1.2295   -1.2119    0.0120 C   0  0  0  0  0
   -4.3691   -1.2129   -0.0080 C   0  0  0  0  0
   -4.3691    1.2129    0.0078 C   0  0  0  0  0
   -5.0684    0.0080   -0.0080 C   0  0  0  0  0
    3.3291   -0.0096    0.0100 C   0  0  0  0  0
   -0.7112    2.1523    0.0120 H   0  0  0  0  0
   -0.7122   -2.1504    0.0096 H   0  0  0  0  0
   -2.4268   -2.1504    0.0078 H   0  0  0  0  0
   -2.4277    2.1514    0.0144 H   0  0  0  0  0
    1.7725    2.1504    0.0096 H   0  0  0  0  0
    1.7715   -2.1504    0.0120 H   0  0  0  0  0
   -4.9102   -2.1514   -0.0144 H   0  0  0  0  0
   -4.9102    2.1514    0.0078 H   0  0  0  0  0
   -6.1523    0.0112   -0.0144 H   0  0  0  0  0
  1 14  3  0  0  0
  2  3  1  0  0  0
  2  5  1  0  0  0
  2  6  2  0  0  0
  3  7  1  0  0  0
  3  8  2  0  0  0
  4  9  1  0  0  0
  4 10  2  0  0  0
  4 14  1  0  0  0
  5  9  2  0  0  0
  5 15  1  0  0  0
  6 10  1  0  0  0
  6 16  1  0  0  0
  7 11  2  0  0  0
  7 17  1  0  0  0
  8 12  1  0  0  0
  8 18  1  0  0  0
  9 19  1  0  0  0
 10 20  1  0  0  0
 11 13  1  0  0  0
 11 21  1  0  0  0
 12 13  2  0  0  0
 12 22  1  0  0  0
 13 23  1  0  0  0
M  END
> <EXTREG>
4-biphenylcarbonitrile

> <# Confs.>
1

> <LIC50>
1.24

> <Name>
4-biphenylcarbonitrile

$$$$
  4-bromobenzonitrile
XX    ILIB04271811163D

 13 13  0  0  1  0              1 V2000
    3.2500    0.0080    0.0092 Br  0  0  0  0  0
   -4.0449    0.0080   -0.0116 N   0  0  0  0  0
    1.3999    0.0080    0.0080 C   0  0  0  0  0
   -1.3999    0.0080   -0.0080 C   0  0  0  0  0
    0.7000   -1.2114    0.0078 C   0  0  0  0  0
    0.7000    1.2129    0.0080 C   0  0  0  0  0
   -0.7000   -1.2129   -0.0080 C   0  0  0  0  0
   -0.7000    1.2129    0.0078 C   0  0  0  0  0
   -2.9043    0.0128   -0.0084 C   0  0  0  0  0
    1.2422   -2.1504    0.0078 H   0  0  0  0  0
    1.2417    2.1514    0.0144 H   0  0  0  0  0
   -1.2417   -2.1514   -0.0144 H   0  0  0  0  0
   -1.2417    2.1514    0.0078 H   0  0  0  0  0
  1  3  1  0  0  0
  2  9  3  0  0  0
  3  5  1  0  0  0
  3  6  2  0  0  0
  4  7  1  0  0  0
  4  8  2  0  0  0
  4  9  1  0  0  0
  5  7  2  0  0  0
  5 10  1  0  0  0
  6  8  1  0  0  0
  6 11  1  0  0  0
  7 12  1  0  0  0
  8 13  1  0  0  0
M  END
> <EXTREG>
4-bromobenzonitrile

> <# Confs.>
1

> <LIC50>
0.29

> <Name>
4-bromobenzonitrile

$$$$
  benzonitrile
XX    ILIB04271811163D

 13 13  0  0  1  0              1 V2000
   -4.0449    0.0080   -0.0116 N   0  0  0  0  0
   -1.3999    0.0080   -0.0080 C   0  0  0  0  0
   -0.7000   -1.2129   -0.0080 C   0  0  0  0  0
   -0.7000    1.2129    0.0078 C   0  0  0  0  0
    0.7000   -1.2114    0.0078 C   0  0  0  0  0
    0.7000    1.2129    0.0080 C   0  0  0  0  0
    1.3999    0.0080    0.0080 C   0  0  0  0  0
   -2.9043    0.0128   -0.0084 C   0  0  0  0  0
   -1.2417   -2.1514   -0.0144 H   0  0  0  0  0
   -1.2417    2.1514    0.0078 H   0  0  0  0  0
    1.2422   -2.1504    0.0078 H   0  0  0  0  0
    1.2417    2.1514    0.0144 H   0  0  0  0  0
    2.4834    0.0080    0.0144 H   0  0  0  0  0
  1  8  3  0  0  0
  2  3  1  0  0  0
  2  4  2  0  0  0
  2  8  1  0  0  0
  3  5  2  0  0  0
  3  9  1  0  0  0
  4  6  1  0  0  0
  4 10  1  0  0  0
  5  7  1  0  0  0
  5 11  1  0  0  0
  6  7  2  0  0  0
  6 12  1  0  0  0
  7 13  1  0  0  0
M  END
> <EXTREG>
benzonitrile

> <# Confs.>
1

> <LIC50>
-0.52

> <Name>
benzonitrile

$$$$
  2-chlorobenzonitrile
XX    ILIB04271811163D

 13 13  0  0  1  0              1 V2000
   -1.5493   -2.6846   -0.0088 Cl  0  0  0  0  0
   -4.0449    0.0080   -0.0116 N   0  0  0  0  0
   -0.7000   -1.2129   -0.0080 C   0  0  0  0  0
   -1.3999    0.0080   -0.0080 C   0  0  0  0  0
    0.7000   -1.2114    0.0078 C   0  0  0  0  0
   -0.7000    1.2129    0.0078 C   0  0  0  0  0
    1.3999    0.0080    0.0080 C   0  0  0  0  0
    0.7000    1.2129    0.0080 C   0  0  0  0  0
   -2.9043    0.0128   -0.0084 C   0  0  0  0  0
    1.2422   -2.1504    0.0078 H   0  0  0  0  0
   -1.2417    2.1514    0.0078 H   0  0  0  0  0
    2.4834    0.0080    0.0144 H   0  0  0  0  0
    1.2417    2.1514    0.0144 H   0  0  0  0  0
  1  3  1  0  0  0
  2  9  3  0  0  0
  3  4  1  0  0  0
  3  5  2  0  0  0
  4  6  2  0  0  0
  4  9  1  0  0  0
  5  7  1  0  0  0
  5 10  1  0  0  0
  6  8  1  0  0  0
  6 11  1  0  0  0
  7  8  2  0  0  0
  7 12  1  0  0  0
  8 13  1  0  0  0
M  END
> <EXTREG>
2-chlorobenzonitrile

> <# Confs.>
1

> <LIC50>
0.28

> <Name>
2-chlorobenzonitrile

$$$$
  3-chlorobenzonitrile
XX    ILIB04271811163D

 13 13  0  0  1  0              1 V2000
    1.5503   -2.6836    0.0078 Cl  0  0  0  0  0
   -4.0449    0.0080   -0.0116 N   0  0  0  0  0
    0.7000   -1.2114    0.0078 C   0  0  0  0  0
   -1.3999    0.0080   -0.0080 C   0  0  0  0  0
   -0.7000   -1.2129   -0.0080 C   0  0  0  0  0
    1.3999    0.0080    0.0080 C   0  0  0  0  0
   -0.7000    1.2129    0.0078 C   0  0  0  0  0
    0.7000    1.2129    0.0080 C   0  0  0  0  0
   -2.9043    0.0128   -0.0084 C   0  0  0  0  0
   -1.2417   -2.1514   -0.0144 H   0  0  0  0  0
    2.4834    0.0080    0.0144 H   0  0  0  0  0
   -1.2417    2.1514    0.0078 H   0  0  0  0  0
    1.2417    2.1514    0.0144 H   0  0  0  0  0
  1  3  1  0  0  0
  2  9  3  0  0  0
  3  5  2  0  0  0
  3  6  1  0  0  0
  4  5  1  0  0  0
  4  7  2  0  0  0
  4  9  1  0  0  0
  5 10  1  0  0  0
  6  8  2  0  0  0
  6 11  1  0  0  0
  7  8  1  0  0  0
  7 12  1  0  0  0
  8 13  1  0  0  0
M  END
> <EXTREG>
3-chlorobenzonitrile

> <# Confs.>
1

> <LIC50>
-0.055

> <Name>
3-chlorobenzonitrile

$$$$
  4-chlorobenzonitrile
XX    ILIB04271811163D

 13 13  0  0  1  0              1 V2000
    3.0996    0.0080    0.0088 Cl  0  0  0  0  0
   -4.0449    0.0080   -0.0116 N   0  0  0  0  0
    1.3999    0.0080    0.0080 C   0  0  0  0  0
   -1.3999    0.0080   -0.0080 C   0  0  0  0  0
    0.7000   -1.2114    0.0078 C   0  0  0  0  0
    0.7000    1.2129    0.0080 C   0  0  0  0  0
   -0.7000   -1.2129   -0.0080 C   0  0  0  0  0
   -0.7000    1.2129    0.0078 C   0  0  0  0  0
   -2.9043    0.0128   -0.0084 C   0  0  0  0  0
    1.2422   -2.1504    0.0078 H   0  0  0  0  0
    1.2417    2.1514    0.0144 H   0  0  0  0  0
   -1.2417   -2.1514   -0.0144 H   0  0  0  0  0
   -1.2417    2.1514    0.0078 H   0  0  0  0  0
  1  3  1  0  0  0
  2  9  3  0  0  0
  3  5  1  0  0  0
  3  6  2  0  0  0
  4  7  1  0  0  0
  4  8  2  0  0  0
  4  9  1  0  0  0
  5  7  2  0  0  0
  5 10  1  0  0  0
  6  8  1  0  0  0
  6 11  1  0  0  0
  7 12  1  0  0  0
  8 13  1  0  0  0
M  END
> <EXTREG>
4-chlorobenzonitrile

> <# Confs.>
1

> <LIC50>
0

> <Name>
4-chlorobenzonitrile

$$$$
  4-fluorobenzonitrile
XX    ILIB04271811163D

 13 13  0  0  1  0              1 V2000
    2.7275    0.0080    0.0152 F   0  0  0  0  0
   -4.0449    0.0080   -0.0116 N   0  0  0  0  0
    1.3999    0.0080    0.0080 C   0  0  0  0  0
   -1.3999    0.0080   -0.0080 C   0  0  0  0  0
    0.7000   -1.2114    0.0078 C   0  0  0  0  0
    0.7000    1.2129    0.0080 C   0  0  0  0  0
   -0.7000   -1.2129   -0.0080 C   0  0  0  0  0
   -0.7000    1.2129    0.0078 C   0  0  0  0  0
   -2.9043    0.0128   -0.0084 C   0  0  0  0  0
    1.2422   -2.1504    0.0078 H   0  0  0  0  0
    1.2417    2.1514    0.0144 H   0  0  0  0  0
   -1.2417   -2.1514   -0.0144 H   0  0  0  0  0
   -1.2417    2.1514    0.0078 H   0  0  0  0  0
  1  3  1  0  0  0
  2  9  3  0  0  0
  3  5  1  0  0  0
  3  6  2  0  0  0
  4  7  1  0  0  0
  4  8  2  0  0  0
  4  9  1  0  0  0
  5  7  2  0  0  0
  5 10  1  0  0  0
  6  8  1  0  0  0
  6 11  1  0  0  0
  7 12  1  0  0  0
  8 13  1  0  0  0
M  END
> <EXTREG>
4-fluorobenzonitrile

> <# Confs.>
1

> <LIC50>
-0.26

> <Name>
4-fluorobenzonitrile

$$$$
  4-methoxybenzonitrile
XX    ILIB04271811163D

 17 17  0  0  1  0              1 V2000
    3.4834    0.0080    0.0082 O   0  0  0  0  0
   -3.3213    0.0088   -0.0128 N   0  0  0  0  0
    2.1230    0.0096    0.0124 C   0  0  0  0  0
   -0.6763    0.0096    0.0088 C   0  0  0  0  0
    1.4233   -1.2114    0.0084 C   0  0  0  0  0
    1.4233    1.2129    0.0124 C   0  0  0  0  0
    0.0235   -1.2129    0.0088 C   0  0  0  0  0
    0.0235    1.2129    0.0084 C   0  0  0  0  0
    3.9580    1.3447    0.0100 C   0  0  0  0  0
   -2.1807    0.0144    0.0078 C   0  0  0  0  0
    1.9653   -2.1504    0.0084 H   0  0  0  0  0
    1.9653    2.1514    0.0156 H   0  0  0  0  0
   -0.5181   -2.1514    0.0096 H   0  0  0  0  0
   -0.5183    2.1514    0.0084 H   0  0  0  0  0
    3.5957    1.8594   -0.8857 H   0  0  0  0  0
    3.5938    1.8589    0.8955 H   0  0  0  0  0
    5.0488    1.3447    0.0114 H   0  0  0  0  0
  1  3  1  0  0  0
  1  9  1  0  0  0
  2 10  3  0  0  0
  3  5  1  0  0  0
  3  6  2  0  0  0
  4  7  1  0  0  0
  4  8  2  0  0  0
  4 10  1  0  0  0
  5  7  2  0  0  0
  5 11  1  0  0  0
  6  8  1  0  0  0
  6 12  1  0  0  0
  7 13  1  0  0  0
  8 14  1  0  0  0
  9 15  1  0  0  0
  9 16  1  0  0  0
  9 17  1  0  0  0
M  END
> <EXTREG>
4-methoxybenzonitrile

> <# Confs.>
1

> <LIC50>
0.1

> <Name>
4-methoxybenzonitrile

$$$$
  4-acetylbenzonitrile
XX    ILIB04271811163D

 18 18  0  0  1  0              1 V2000
    3.4766    1.0522    0.0116 O   0  0  0  0  0
   -4.0449    0.0080   -0.0116 N   0  0  0  0  0
    1.3999    0.0080    0.0080 C   0  0  0  0  0
   -1.3999    0.0080   -0.0080 C   0  0  0  0  0
    0.7000   -1.2114    0.0078 C   0  0  0  0  0
    0.7000    1.2129    0.0080 C   0  0  0  0  0
   -0.7000   -1.2129   -0.0080 C   0  0  0  0  0
   -0.7000    1.2129    0.0078 C   0  0  0  0  0
    2.8691    0.0080    0.0084 C   0  0  0  0  0
   -2.9043    0.0128   -0.0084 C   0  0  0  0  0
    3.6250   -1.3071    0.0084 C   0  0  0  0  0
    1.2422   -2.1504    0.0078 H   0  0  0  0  0
    1.2417    2.1514    0.0144 H   0  0  0  0  0
   -1.2417   -2.1514   -0.0144 H   0  0  0  0  0
   -1.2417    2.1514    0.0078 H   0  0  0  0  0
    3.3604   -1.8794    0.8923 H   0  0  0  0  0
    3.3613   -1.8784   -0.8892 H   0  0  0  0  0
    4.6973   -1.1074    0.0116 H   0  0  0  0  0
  1  9  2  0  0  0
  2 10  3  0  0  0
  3  5  1  0  0  0
  3  6  2  0  0  0
  3  9  1  0  0  0
  4  7  1  0  0  0
  4  8  2  0  0  0
  4 10  1  0  0  0
  5  7  2  0  0  0
  5 12  1  0  0  0
  6  8  1  0  0  0
  6 13  1  0  0  0
  7 14  1  0  0  0
  8 15  1  0  0  0
  9 11  1  0  0  0
 11 16  1  0  0  0
 11 17  1  0  0  0
 11 18  1  0  0  0
M  END
> <EXTREG>
4-acetylbenzonitrile

> <# Confs.>
1

> <LIC50>
-0.37

> <Name>
4-acetylbenzonitrile

$$$$
  methyl-4-cyanobenzoate
XX    ILIB04271811163D

 19 19  0  0  1  0              1 V2000
    3.4766   -1.0513    0.0080 O   0  0  0  0  0
    3.5820    1.2354    0.0124 O   0  0  0  0  0
   -4.0449    0.0080   -0.0116 N   0  0  0  0  0
    1.3999    0.0080    0.0080 C   0  0  0  0  0
   -1.3999    0.0080   -0.0080 C   0  0  0  0  0
    0.7000   -1.2114    0.0078 C   0  0  0  0  0
    0.7000    1.2129    0.0080 C   0  0  0  0  0
   -0.7000   -1.2129   -0.0080 C   0  0  0  0  0
   -0.7000    1.2129    0.0078 C   0  0  0  0  0
    2.8691    0.0080    0.0080 C   0  0  0  0  0
    4.9844    0.9749    0.0080 C   0  0  0  0  0
   -2.9043    0.0128   -0.0084 C   0  0  0  0  0
    1.2422   -2.1504    0.0078 H   0  0  0  0  0
    1.2417    2.1514    0.0144 H   0  0  0  0  0
   -1.2417   -2.1514   -0.0144 H   0  0  0  0  0
   -1.2417    2.1514    0.0078 H   0  0  0  0  0
    5.2461    0.4023    0.8945 H   0  0  0  0  0
    5.2480    0.4031   -0.8867 H   0  0  0  0  0
    5.5293    1.9194    0.0094 H   0  0  0  0  0
  1 10  2  0  0  0
  2 10  1  0  0  0
  2 11  1  0  0  0
  3 12  3  0  0  0
  4  6  1  0  0  0
  4  7  2  0  0  0
  4 10  1  0  0  0
  5  8  1  0  0  0
  5  9  2  0  0  0
  5 12  1  0  0  0
  6  8  2  0  0  0
  6 13  1  0  0  0
  7  9  1  0  0  0
  7 14  1  0  0  0
  8 15  1  0  0  0
  9 16  1  0  0  0
 11 17  1  0  0  0
 11 18  1  0  0  0
 11 19  1  0  0  0
M  END
> <EXTREG>
methyl-4-cyanobenzoate

> <# Confs.>
1

> <LIC50>
-0.061

> <Name>
methyl-4-cyanobenzoate

$$$$
  4-cyanobenzaldehyde
XX    ILIB04271811163D

 15 15  0  0  1  0              1 V2000
    3.4766   -1.0513    0.0080 O   0  0  0  0  0
   -4.0449    0.0080   -0.0116 N   0  0  0  0  0
    1.3999    0.0080    0.0080 C   0  0  0  0  0
   -1.3999    0.0080   -0.0080 C   0  0  0  0  0
    0.7000   -1.2114    0.0078 C   0  0  0  0  0
    0.7000    1.2129    0.0080 C   0  0  0  0  0
   -0.7000   -1.2129   -0.0080 C   0  0  0  0  0
   -0.7000    1.2129    0.0078 C   0  0  0  0  0
    2.8691    0.0080    0.0080 C   0  0  0  0  0
   -2.9043    0.0128   -0.0084 C   0  0  0  0  0
    1.2422   -2.1504    0.0078 H   0  0  0  0  0
    1.2417    2.1514    0.0144 H   0  0  0  0  0
   -1.2417   -2.1514   -0.0144 H   0  0  0  0  0
   -1.2417    2.1514    0.0078 H   0  0  0  0  0
    3.4150    0.9451    0.0112 H   0  0  0  0  0
  1  9  2  0  0  0
  2 10  3  0  0  0
  3  5  1  0  0  0
  3  6  2  0  0  0
  3  9  1  0  0  0
  4  7  1  0  0  0
  4  8  2  0  0  0
  4 10  1  0  0  0
  5  7  2  0  0  0
  5 11  1  0  0  0
  6  8  1  0  0  0
  6 12  1  0  0  0
  7 13  1  0  0  0
  8 14  1  0  0  0
  9 15  1  0  0  0
M  END
> <EXTREG>
4-cyanobenzaldehyde

> <# Confs.>
1

> <LIC50>
0.042

> <Name>
4-cyanobenzaldehyde

$$$$
  4-cyanobenzamide
XX    ILIB04271811163D

 17 17  0  0  1  0              1 V2000
   -2.7598    1.0752   -0.0084 O   0  0  0  0  0
    4.7617    0.0230    0.0116 N   0  0  0  0  0
   -2.8193   -1.1309   -0.0120 N   0  0  0  0  0
   -0.6826    0.0230   -0.0080 C   0  0  0  0  0
    2.1172    0.0230    0.0080 C   0  0  0  0  0
    0.0173   -1.1904   -0.0080 C   0  0  0  0  0
    0.0173    1.2354    0.0078 C   0  0  0  0  0
    1.4170   -1.1895    0.0078 C   0  0  0  0  0
    1.4170    1.2354    0.0080 C   0  0  0  0  0
   -2.1523    0.0232   -0.0084 C   0  0  0  0  0
    3.6221    0.0230    0.0084 C   0  0  0  0  0
   -2.3154   -2.0039   -0.0116 H   0  0  0  0  0
   -3.8271   -1.1309   -0.0152 H   0  0  0  0  0
   -0.5244   -2.1289   -0.0144 H   0  0  0  0  0
   -0.5244    2.1738    0.0078 H   0  0  0  0  0
    1.9595   -2.1279    0.0078 H   0  0  0  0  0
    1.9590    2.1738    0.0144 H   0  0  0  0  0
  1 10  2  0  0  0
  2 11  3  0  0  0
  3 10  1  0  0  0
  3 12  1  0  0  0
  3 13  1  0  0  0
  4  6  1  0  0  0
  4  7  2  0  0  0
  4 10  1  0  0  0
  5  8  1  0  0  0
  5  9  2  0  0  0
  5 11  1  0  0  0
  6  8  2  0  0  0
  6 14  1  0  0  0
  7  9  1  0  0  0
  7 15  1  0  0  0
  8 16  1  0  0  0
  9 17  1  0  0  0
M  END
> <EXTREG>
4-cyanobenzamide

> <# Confs.>
1

> <LIC50>
-0.38

> <Name>
4-cyanobenzamide

$$$$
  3-cyano-4-6-dimethyl-2-OH_pyridine
XX    ILIB04271811163D

 19 19  0  0  1  0              1 V2000
    0.6687   -2.6660    0.0078 O   0  0  0  0  0
    1.4072   -0.4697    0.0078 N   0  0  0  0  0
   -2.8398   -2.7393    0.0078 N   0  0  0  0  0
    0.3903   -1.3354    0.0078 C   0  0  0  0  0
    1.1909    0.7747    0.0078 C   0  0  0  0  0
   -0.8936   -0.9487    0.0078 C   0  0  0  0  0
   -1.1973    0.4843    0.0078 C   0  0  0  0  0
   -0.1633    1.3354    0.0078 C   0  0  0  0  0
   -2.0010   -1.9673    0.0078 C   0  0  0  0  0
    2.3652    1.7153    0.0078 C   0  0  0  0  0
   -2.6182    0.9812    0.0078 C   0  0  0  0  0
    1.6987   -2.7939    0.0078 H   0  0  0  0  0
   -0.3231    2.4072    0.0078 H   0  0  0  0  0
    2.3271    2.3438   -0.8906 H   0  0  0  0  0
    2.3271    2.3438    0.8906 H   0  0  0  0  0
    3.2920    1.1401    0.0078 H   0  0  0  0  0
   -2.7910    1.5869    0.8906 H   0  0  0  0  0
   -2.7910    1.5869   -0.8906 H   0  0  0  0  0
   -3.3008    0.1307    0.0078 H   0  0  0  0  0
  1  4  1  0  0  0
  1 12  1  0  0  0
  2  4  1  0  0  0
  2  5  2  0  0  0
  3  9  3  0  0  0
  4  6  2  0  0  0
  5  8  1  0  0  0
  5 10  1  0  0  0
  6  7  1  0  0  0
  6  9  1  0  0  0
  7  8  2  0  0  0
  7 11  1  0  0  0
  8 13  1  0  0  0
 10 14  1  0  0  0
 10 15  1  0  0  0
 10 16  1  0  0  0
 11 17  1  0  0  0
 11 18  1  0  0  0
 11 19  1  0  0  0
M  END
> <EXTREG>
3-cyano-4-6-dimethyl-2-OH_pyridine

> <# Confs.>
1

> <LIC50>
-0.7

> <Name>
3-cyano-4-6-dimethyl-2-OH_pyridine

$$$$
  2-amino-5-chlorobenzonitrile
XX    ILIB04271811163D

 15 15  0  0  1  0              1 V2000
    1.5498    2.6846    0.0088 Cl  0  0  0  0  0
   -1.3662   -2.3672   -0.0080 N   0  0  0  0  0
   -4.0449    0.0080   -0.0116 N   0  0  0  0  0
    0.7000    1.2129    0.0080 C   0  0  0  0  0
   -0.7000   -1.2129   -0.0080 C   0  0  0  0  0
   -1.3999    0.0080   -0.0080 C   0  0  0  0  0
   -0.7000    1.2129    0.0078 C   0  0  0  0  0
    1.3999    0.0080    0.0080 C   0  0  0  0  0
    0.7000   -1.2114    0.0078 C   0  0  0  0  0
   -2.9043    0.0128   -0.0084 C   0  0  0  0  0
   -0.8621   -3.2402   -0.0080 H   0  0  0  0  0
   -2.3740   -2.3672   -0.0108 H   0  0  0  0  0
   -1.2417    2.1514    0.0078 H   0  0  0  0  0
    2.4834    0.0080    0.0144 H   0  0  0  0  0
    1.2422   -2.1504    0.0078 H   0  0  0  0  0
  1  4  1  0  0  0
  2  5  1  0  0  0
  2 11  1  0  0  0
  2 12  1  0  0  0
  3 10  3  0  0  0
  4  7  1  0  0  0
  4  8  2  0  0  0
  5  6  1  0  0  0
  5  9  2  0  0  0
  6  7  2  0  0  0
  6 10  1  0  0  0
  7 13  1  0  0  0
  8  9  1  0  0  0
  8 14  1  0  0  0
  9 15  1  0  0  0
M  END
> <EXTREG>
2-amino-5-chlorobenzonitrile

> <# Confs.>
1

> <LIC50>
0.44

> <Name>
2-amino-5-chlorobenzonitrile

$$$$
  3-cyanobenzaldehyde
XX    ILIB04271811163D

 15 15  0  0  1  0              1 V2000
    2.6504   -2.4834    0.0144 O   0  0  0  0  0
   -4.0449    0.0080   -0.0116 N   0  0  0  0  0
    0.7000   -1.2114    0.0078 C   0  0  0  0  0
   -1.3999    0.0080   -0.0080 C   0  0  0  0  0
   -0.7000   -1.2129   -0.0080 C   0  0  0  0  0
    1.3999    0.0080    0.0080 C   0  0  0  0  0
   -0.7000    1.2129    0.0078 C   0  0  0  0  0
    0.7000    1.2129    0.0080 C   0  0  0  0  0
    1.4351   -2.4844    0.0078 C   0  0  0  0  0
   -2.9043    0.0128   -0.0084 C   0  0  0  0  0
   -1.2417   -2.1514   -0.0144 H   0  0  0  0  0
    2.4834    0.0080    0.0144 H   0  0  0  0  0
   -1.2417    2.1514    0.0078 H   0  0  0  0  0
    1.2417    2.1514    0.0144 H   0  0  0  0  0
    0.8901   -3.4297   -0.0128 H   0  0  0  0  0
  1  9  2  0  0  0
  2 10  3  0  0  0
  3  5  2  0  0  0
  3  6  1  0  0  0
  3  9  1  0  0  0
  4  5  1  0  0  0
  4  7  2  0  0  0
  4 10  1  0  0  0
  5 11  1  0  0  0
  6  8  2  0  0  0
  6 12  1  0  0  0
  7  8  1  0  0  0
  7 13  1  0  0  0
  8 14  1  0  0  0
  9 15  1  0  0  0
M  END
> <EXTREG>
3-cyanobenzaldehyde

> <# Confs.>
1

> <LIC50>
-0.019

> <Name>
3-cyanobenzaldehyde

$$$$
  3-methoxybenzonitrile
XX    ILIB04271811163D

 17 17  0  0  1  0              1 V2000
    1.3804   -2.3887    0.0078 O   0  0  0  0  0
   -4.0449    0.0080   -0.0116 N   0  0  0  0  0
    0.7000   -1.2114    0.0078 C   0  0  0  0  0
   -1.3999    0.0080   -0.0080 C   0  0  0  0  0
   -0.7000   -1.2129   -0.0080 C   0  0  0  0  0
    1.3999    0.0080    0.0080 C   0  0  0  0  0
   -0.7000    1.2129    0.0078 C   0  0  0  0  0
    0.7000    1.2129    0.0080 C   0  0  0  0  0
    2.7822   -2.1279    0.0088 C   0  0  0  0  0
   -2.9043    0.0128   -0.0084 C   0  0  0  0  0
   -1.2417   -2.1514   -0.0144 H   0  0  0  0  0
    2.4834    0.0080    0.0144 H   0  0  0  0  0
   -1.2417    2.1514    0.0078 H   0  0  0  0  0
    1.2417    2.1514    0.0144 H   0  0  0  0  0
    3.0459   -1.5557   -0.8892 H   0  0  0  0  0
    3.0449   -1.5562    0.8921 H   0  0  0  0  0
    3.3281   -3.0723    0.0088 H   0  0  0  0  0
  1  3  1  0  0  0
  1  9  1  0  0  0
  2 10  3  0  0  0
  3  5  2  0  0  0
  3  6  1  0  0  0
  4  5  1  0  0  0
  4  7  2  0  0  0
  4 10  1  0  0  0
  5 11  1  0  0  0
  6  8  2  0  0  0
  6 12  1  0  0  0
  7  8  1  0  0  0
  7 13  1  0  0  0
  8 14  1  0  0  0
  9 15  1  0  0  0
  9 16  1  0  0  0
  9 17  1  0  0  0
M  END
> <EXTREG>
3-methoxybenzonitrile

> <# Confs.>
1

> <LIC50>
0.048

> <Name>
3-methoxybenzonitrile

$$$$
  ethyl-4-cyanobenzoate
XX    ILIB04271811163D

 22 22  0  0  1  0              1 V2000
    3.4766   -1.0513    0.0084 O   0  0  0  0  0
    3.5820    1.2354    0.0124 O   0  0  0  0  0
   -4.0449    0.0080   -0.0116 N   0  0  0  0  0
    1.3999    0.0080    0.0080 C   0  0  0  0  0
   -1.3999    0.0080   -0.0080 C   0  0  0  0  0
    0.7000   -1.2114    0.0078 C   0  0  0  0  0
    0.7000    1.2129    0.0080 C   0  0  0  0  0
   -0.7000   -1.2129   -0.0080 C   0  0  0  0  0
   -0.7000    1.2129    0.0078 C   0  0  0  0  0
    2.8691    0.0080    0.0084 C   0  0  0  0  0
    4.9844    0.9749    0.0080 C   0  0  0  0  0
   -2.9043    0.0128   -0.0084 C   0  0  0  0  0
    5.7520    2.3057    0.0102 C   0  0  0  0  0
    1.2422   -2.1504    0.0078 H   0  0  0  0  0
    1.2417    2.1514    0.0144 H   0  0  0  0  0
   -1.2417   -2.1514   -0.0144 H   0  0  0  0  0
   -1.2417    2.1514    0.0078 H   0  0  0  0  0
    5.2461    0.4023    0.8945 H   0  0  0  0  0
    5.2480    0.4031   -0.8867 H   0  0  0  0  0
    5.4902    2.8779   -0.8855 H   0  0  0  0  0
    5.4883    2.8770    0.8958 H   0  0  0  0  0
    6.8242    2.1064    0.0114 H   0  0  0  0  0
  1 10  2  0  0  0
  2 10  1  0  0  0
  2 11  1  0  0  0
  3 12  3  0  0  0
  4  6  1  0  0  0
  4  7  2  0  0  0
  4 10  1  0  0  0
  5  8  1  0  0  0
  5  9  2  0  0  0
  5 12  1  0  0  0
  6  8  2  0  0  0
  6 14  1  0  0  0
  7  9  1  0  0  0
  7 15  1  0  0  0
  8 16  1  0  0  0
  9 17  1  0  0  0
 11 13  1  0  0  0
 11 18  1  0  0  0
 11 19  1  0  0  0
 13 20  1  0  0  0
 13 21  1  0  0  0
 13 22  1  0  0  0
M  END
> <EXTREG>
ethyl-4-cyanobenzoate

> <# Confs.>
1

> <LIC50>
0.37

> <Name>
ethyl-4-cyanobenzoate

$$$$
2-6-dimethylnitrobenzene
XX    ILIB04271811163D

 20 20  0  0  1  0              1 V2000
   -1.1431   -1.0557   -0.0112 O   0  0  0  0  0
   -1.1426    1.0571   -0.0152 O   0  0  0  0  0
   -0.5330    0.0112   -0.0080 N   0  2  0  0  0
    0.7998    0.0080   -0.0080 C   0  0  0  0  0
    1.5000   -1.2129   -0.0080 C   0  0  0  0  0
    1.5000    1.2129    0.0078 C   0  0  0  0  0
    2.8994   -1.2114    0.0078 C   0  0  0  0  0
    2.8994    1.2129    0.0080 C   0  0  0  0  0
    3.5996    0.0080    0.0080 C   0  0  0  0  0
    0.7476   -2.5156   -0.0084 C   0  0  0  0  0
    0.7473    2.5156    0.0078 C   0  0  0  0  0
    3.4414   -2.1504    0.0078 H   0  0  0  0  0
    3.4414    2.1514    0.0144 H   0  0  0  0  0
    4.6836    0.0080    0.0144 H   0  0  0  0  0
    1.0117   -3.0879   -0.8928 H   0  0  0  0  0
    1.0103   -3.0889    0.8887 H   0  0  0  0  0
   -0.3250   -2.3164   -0.0112 H   0  0  0  0  0
    0.1209    2.5742   -0.8911 H   0  0  0  0  0
    0.1196    2.5732    0.8904 H   0  0  0  0  0
    1.4561    3.3447    0.0144 H   0  0  0  0  0
  1  3  2  0  0  0
  2  3  2  0  0  0
  3  4  1  0  0  0
  4  5  1  0  0  0
  4  6  2  0  0  0
  5  7  2  0  0  0
  5 10  1  0  0  0
  6  8  1  0  0  0
  6 11  1  0  0  0
  7  9  1  0  0  0
  7 12  1  0  0  0
  8  9  2  0  0  0
  8 13  1  0  0  0
  9 14  1  0  0  0
 10 15  1  0  0  0
 10 16  1  0  0  0
 10 17  1  0  0  0
 11 18  1  0  0  0
 11 19  1  0  0  0
 11 20  1  0  0  0
M  END
> <EXTREG>
2-6-dimethylnitrobenzene

> <# Confs.>
1

> <LIC50>
0.3

> <Name>
2-6-dimethylnitrobenzene

$$$$
2-3-dimethylnitrobenzene
XX    ILIB04271811163D

 20 20  0  0  1  0              1 V2000
   -1.1431   -1.0557   -0.0112 O   0  0  0  0  0
   -1.1426    1.0571   -0.0152 O   0  0  0  0  0
   -0.5330    0.0112   -0.0080 N   0  2  0  0  0
    0.7998    0.0080   -0.0080 C   0  0  0  0  0
    1.5000   -1.2129   -0.0080 C   0  0  0  0  0
    2.8994   -1.2114    0.0078 C   0  0  0  0  0
    1.5000    1.2129    0.0078 C   0  0  0  0  0
    3.5996    0.0080    0.0080 C   0  0  0  0  0
    2.8994    1.2129    0.0080 C   0  0  0  0  0
    0.7476   -2.5156   -0.0084 C   0  0  0  0  0
    3.6523   -2.5146    0.0078 C   0  0  0  0  0
    0.9578    2.1514    0.0078 H   0  0  0  0  0
    4.6836    0.0080    0.0144 H   0  0  0  0  0
    3.4414    2.1514    0.0144 H   0  0  0  0  0
    1.0117   -3.0879   -0.8928 H   0  0  0  0  0
    1.0103   -3.0889    0.8887 H   0  0  0  0  0
   -0.3250   -2.3164   -0.0112 H   0  0  0  0  0
    3.3887   -3.0869    0.8904 H   0  0  0  0  0
    3.3896   -3.0859   -0.8911 H   0  0  0  0  0
    4.7246   -2.3145    0.0128 H   0  0  0  0  0
  1  3  2  0  0  0
  2  3  2  0  0  0
  3  4  1  0  0  0
  4  5  1  0  0  0
  4  7  2  0  0  0
  5  6  2  0  0  0
  5 10  1  0  0  0
  6  8  1  0  0  0
  6 11  1  0  0  0
  7  9  1  0  0  0
  7 12  1  0  0  0
  8  9  2  0  0  0
  8 13  1  0  0  0
  9 14  1  0  0  0
 10 15  1  0  0  0
 10 16  1  0  0  0
 10 17  1  0  0  0
 11 18  1  0  0  0
 11 19  1  0  0  0
 11 20  1  0  0  0
M  END
> <EXTREG>
2-3-dimethylnitrobenzene

> <# Confs.>
1

> <LIC50>
0.56

> <Name>
2-3-dimethylnitrobenzene

$$$$
2-methyl-3-chloronitrobenzene
XX    ILIB04271811163D

 17 17  0  0  1  0              1 V2000
    3.7500   -2.6836    0.0078 Cl  0  0  0  0  0
   -1.1431   -1.0557   -0.0112 O   0  0  0  0  0
   -1.1426    1.0571   -0.0152 O   0  0  0  0  0
   -0.5330    0.0112   -0.0080 N   0  2  0  0  0
    2.8994   -1.2114    0.0078 C   0  0  0  0  0
    0.7998    0.0080   -0.0080 C   0  0  0  0  0
    1.5000   -1.2129   -0.0080 C   0  0  0  0  0
    3.5996    0.0080    0.0080 C   0  0  0  0  0
    1.5000    1.2129    0.0078 C   0  0  0  0  0
    2.8994    1.2129    0.0080 C   0  0  0  0  0
    0.7476   -2.5156   -0.0084 C   0  0  0  0  0
    4.6836    0.0080    0.0144 H   0  0  0  0  0
    0.9578    2.1514    0.0078 H   0  0  0  0  0
    3.4414    2.1514    0.0144 H   0  0  0  0  0
    1.0117   -3.0879   -0.8928 H   0  0  0  0  0
    1.0103   -3.0889    0.8887 H   0  0  0  0  0
   -0.3250   -2.3164   -0.0112 H   0  0  0  0  0
  1  5  1  0  0  0
  2  4  2  0  0  0
  3  4  2  0  0  0
  4  6  1  0  0  0
  5  7  2  0  0  0
  5  8  1  0  0  0
  6  7  1  0  0  0
  6  9  2  0  0  0
  7 11  1  0  0  0
  8 10  2  0  0  0
  8 12  1  0  0  0
  9 10  1  0  0  0
  9 13  1  0  0  0
 10 14  1  0  0  0
 11 15  1  0  0  0
 11 16  1  0  0  0
 11 17  1  0  0  0
M  END
> <EXTREG>
2-methyl-3-chloronitrobenzene

> <# Confs.>
1

> <LIC50>
0.68

> <Name>
2-methyl-3-chloronitrobenzene

$$$$
2-methylnitrobenzene
XX    ILIB04271811163D

 17 17  0  0  1  0              1 V2000
   -1.1431   -1.0557   -0.0112 O   0  0  0  0  0
   -1.1426    1.0571   -0.0152 O   0  0  0  0  0
   -0.5330    0.0112   -0.0080 N   0  2  0  0  0
    0.7998    0.0080   -0.0080 C   0  0  0  0  0
    1.5000   -1.2129   -0.0080 C   0  0  0  0  0
    1.5000    1.2129    0.0078 C   0  0  0  0  0
    2.8994   -1.2114    0.0078 C   0  0  0  0  0
    2.8994    1.2129    0.0080 C   0  0  0  0  0
    3.5996    0.0080    0.0080 C   0  0  0  0  0
    0.7476   -2.5156   -0.0084 C   0  0  0  0  0
    0.9578    2.1514    0.0078 H   0  0  0  0  0
    3.4414   -2.1504    0.0078 H   0  0  0  0  0
    3.4414    2.1514    0.0144 H   0  0  0  0  0
    4.6836    0.0080    0.0144 H   0  0  0  0  0
    1.0117   -3.0879   -0.8928 H   0  0  0  0  0
    1.0103   -3.0889    0.8887 H   0  0  0  0  0
   -0.3250   -2.3164   -0.0112 H   0  0  0  0  0
  1  3  2  0  0  0
  2  3  2  0  0  0
  3  4  1  0  0  0
  4  5  1  0  0  0
  4  6  2  0  0  0
  5  7  2  0  0  0
  5 10  1  0  0  0
  6  8  1  0  0  0
  6 11  1  0  0  0
  7  9  1  0  0  0
  7 12  1  0  0  0
  8  9  2  0  0  0
  8 13  1  0  0  0
  9 14  1  0  0  0
 10 15  1  0  0  0
 10 16  1  0  0  0
 10 17  1  0  0  0
M  END
> <EXTREG>
2-methylnitrobenzene

> <# Confs.>
1

> <LIC50>
0.052

> <Name>
2-methylnitrobenzene

$$$$
2-chloronitrobenzene
XX    ILIB04271811163D

 14 14  0  0  1  0              1 V2000
    0.6501   -2.6846   -0.0088 Cl  0  0  0  0  0
   -1.1431   -1.0557   -0.0112 O   0  0  0  0  0
   -1.1426    1.0571   -0.0152 O   0  0  0  0  0
   -0.5330    0.0112   -0.0080 N   0  2  0  0  0
    1.5000   -1.2129   -0.0080 C   0  0  0  0  0
    0.7998    0.0080   -0.0080 C   0  0  0  0  0
    2.8994   -1.2114    0.0078 C   0  0  0  0  0
    1.5000    1.2129    0.0078 C   0  0  0  0  0
    3.5996    0.0080    0.0080 C   0  0  0  0  0
    2.8994    1.2129    0.0080 C   0  0  0  0  0
    3.4414   -2.1504    0.0078 H   0  0  0  0  0
    0.9578    2.1514    0.0078 H   0  0  0  0  0
    4.6836    0.0080    0.0144 H   0  0  0  0  0
    3.4414    2.1514    0.0144 H   0  0  0  0  0
  1  5  1  0  0  0
  2  4  2  0  0  0
  3  4  2  0  0  0
  4  6  1  0  0  0
  5  6  1  0  0  0
  5  7  2  0  0  0
  6  8  2  0  0  0
  7  9  1  0  0  0
  7 11  1  0  0  0
  8 10  1  0  0  0
  8 12  1  0  0  0
  9 10  2  0  0  0
  9 13  1  0  0  0
 10 14  1  0  0  0
M  END
> <EXTREG>
2-chloronitrobenzene

> <# Confs.>
1

> <LIC50>
0.68

> <Name>
2-chloronitrobenzene

$$$$
2-methyl-5-chloronitrobenzene
XX    ILIB04271811163D

 17 17  0  0  1  0              1 V2000
    3.7500    2.6846    0.0088 Cl  0  0  0  0  0
   -1.1431   -1.0557   -0.0112 O   0  0  0  0  0
   -1.1426    1.0571   -0.0152 O   0  0  0  0  0
   -0.5330    0.0112   -0.0080 N   0  2  0  0  0
    2.8994    1.2129    0.0080 C   0  0  0  0  0
    0.7998    0.0080   -0.0080 C   0  0  0  0  0
    1.5000   -1.2129   -0.0080 C   0  0  0  0  0
    1.5000    1.2129    0.0078 C   0  0  0  0  0
    3.5996    0.0080    0.0080 C   0  0  0  0  0
    2.8994   -1.2114    0.0078 C   0  0  0  0  0
    0.7476   -2.5156   -0.0084 C   0  0  0  0  0
    0.9578    2.1514    0.0078 H   0  0  0  0  0
    4.6836    0.0080    0.0144 H   0  0  0  0  0
    3.4414   -2.1504    0.0078 H   0  0  0  0  0
    1.0117   -3.0879   -0.8928 H   0  0  0  0  0
    1.0103   -3.0889    0.8887 H   0  0  0  0  0
   -0.3250   -2.3164   -0.0112 H   0  0  0  0  0
  1  5  1  0  0  0
  2  4  2  0  0  0
  3  4  2  0  0  0
  4  6  1  0  0  0
  5  8  1  0  0  0
  5  9  2  0  0  0
  6  7  1  0  0  0
  6  8  2  0  0  0
  7 10  2  0  0  0
  7 11  1  0  0  0
  8 12  1  0  0  0
  9 10  1  0  0  0
  9 13  1  0  0  0
 10 14  1  0  0  0
 11 15  1  0  0  0
 11 16  1  0  0  0
 11 17  1  0  0  0
M  END
> <EXTREG>
2-methyl-5-chloronitrobenzene

> <# Confs.>
1

> <LIC50>
0.82

> <Name>
2-methyl-5-chloronitrobenzene

$$$$
2-4-5-trichloronitrobenzene
XX    ILIB04271811163D

 14 14  0  0  1  0              1 V2000
    5.2988    0.0080    0.0088 Cl  0  0  0  0  0
    3.7500    2.6846    0.0088 Cl  0  0  0  0  0
    0.6501   -2.6846   -0.0088 Cl  0  0  0  0  0
   -1.1431   -1.0557   -0.0112 O   0  0  0  0  0
   -1.1426    1.0571   -0.0152 O   0  0  0  0  0
   -0.5330    0.0112   -0.0080 N   0  2  0  0  0
    3.5996    0.0080    0.0080 C   0  0  0  0  0
    2.8994    1.2129    0.0080 C   0  0  0  0  0
    1.5000   -1.2129   -0.0080 C   0  0  0  0  0
    0.7998    0.0080   -0.0080 C   0  0  0  0  0
    2.8994   -1.2114    0.0078 C   0  0  0  0  0
    1.5000    1.2129    0.0078 C   0  0  0  0  0
    3.4414   -2.1504    0.0078 H   0  0  0  0  0
    0.9578    2.1514    0.0078 H   0  0  0  0  0
  1  7  1  0  0  0
  2  8  1  0  0  0
  3  9  1  0  0  0
  4  6  2  0  0  0
  5  6  2  0  0  0
  6 10  1  0  0  0
  7  8  2  0  0  0
  7 11  1  0  0  0
  8 12  1  0  0  0
  9 10  1  0  0  0
  9 11  2  0  0  0
 10 12  2  0  0  0
 11 13  1  0  0  0
 12 14  1  0  0  0
M  END
> <EXTREG>
2-4-5-trichloronitrobenzene

> <# Confs.>
1

> <LIC50>
1.53

> <Name>
2-4-5-trichloronitrobenzene

$$$$
2-5-dichloronitrobenzene
XX    ILIB04271811163D

 14 14  0  0  1  0              1 V2000
   -0.8599   -2.6846   -0.0088 Cl  0  0  0  0  0
    2.2393    2.6846    0.0088 Cl  0  0  0  0  0
   -2.6533   -1.0557   -0.0112 O   0  0  0  0  0
   -2.6523    1.0571   -0.0152 O   0  0  0  0  0
   -2.0430    0.0112   -0.0080 N   0  2  0  0  0
   -0.0104   -1.2129   -0.0080 C   0  0  0  0  0
    1.3892    1.2129    0.0080 C   0  0  0  0  0
   -0.7102    0.0080   -0.0080 C   0  0  0  0  0
   -0.0104    1.2129    0.0078 C   0  0  0  0  0
    1.3892   -1.2114    0.0078 C   0  0  0  0  0
    2.0889    0.0080    0.0080 C   0  0  0  0  0
   -0.5522    2.1514    0.0078 H   0  0  0  0  0
    1.9316   -2.1504    0.0078 H   0  0  0  0  0
    3.1729    0.0080    0.0144 H   0  0  0  0  0
  1  6  1  0  0  0
  2  7  1  0  0  0
  3  5  2  0  0  0
  4  5  2  0  0  0
  5  8  1  0  0  0
  6  8  1  0  0  0
  6 10  2  0  0  0
  7  9  1  0  0  0
  7 11  2  0  0  0
  8  9  2  0  0  0
  9 12  1  0  0  0
 10 11  1  0  0  0
 10 13  1  0  0  0
 11 14  1  0  0  0
M  END
> <EXTREG>
2-5-dichloronitrobenzene

> <# Confs.>
1

> <LIC50>
1.13

> <Name>
2-5-dichloronitrobenzene

$$$$
6-chloro-1-3-dinitrobenzene
XX    ILIB04271811163D

 16 16  0  0  1  0              1 V2000
   -1.5532    2.6846    0.0078 Cl  0  0  0  0  0
   -3.3457   -1.0557   -0.0112 O   0  0  0  0  0
   -3.3457    1.0571   -0.0080 O   0  0  0  0  0
    0.7537   -3.4219   -0.0144 O   0  0  0  0  0
    2.5830   -2.3652    0.0144 O   0  0  0  0  0
   -2.7363    0.0128   -0.0080 N   0  2  0  0  0
    1.3633   -2.3652    0.0078 N   0  2  0  0  0
   -0.7034    1.2129    0.0078 C   0  0  0  0  0
   -1.4033    0.0080   -0.0080 C   0  0  0  0  0
    0.6965   -1.2114    0.0078 C   0  0  0  0  0
    0.6965    1.2129    0.0080 C   0  0  0  0  0
   -0.7034   -1.2129   -0.0080 C   0  0  0  0  0
    1.3965    0.0080    0.0080 C   0  0  0  0  0
    1.2383    2.1514    0.0144 H   0  0  0  0  0
   -1.2451   -2.1514   -0.0144 H   0  0  0  0  0
    2.4805    0.0080    0.0144 H   0  0  0  0  0
  1  8  1  0  0  0
  2  6  2  0  0  0
  3  6  2  0  0  0
  4  7  2  0  0  0
  5  7  2  0  0  0
  6  9  1  0  0  0
  7 10  1  0  0  0
  8  9  2  0  0  0
  8 11  1  0  0  0
  9 12  1  0  0  0
 10 12  2  0  0  0
 10 13  1  0  0  0
 11 13  2  0  0  0
 11 14  1  0  0  0
 12 15  1  0  0  0
 13 16  1  0  0  0
M  END
> <EXTREG>
6-chloro-1-3-dinitrobenzene

> <# Confs.>
1

> <LIC50>
1.98

> <Name>
6-chloro-1-3-dinitrobenzene

$$$$
nitrobenzene
XX    ILIB04271811163D

 14 14  0  0  1  0              1 V2000
   -2.6533   -1.0557   -0.0112 O   0  0  0  0  0
   -2.6523    1.0571   -0.0152 O   0  0  0  0  0
   -2.0430    0.0112   -0.0080 N   0  2  0  0  0
   -0.7102    0.0080   -0.0080 C   0  0  0  0  0
   -0.0104   -1.2129   -0.0080 C   0  0  0  0  0
   -0.0104    1.2129    0.0078 C   0  0  0  0  0
    1.3892   -1.2114    0.0078 C   0  0  0  0  0
    1.3892    1.2129    0.0080 C   0  0  0  0  0
    2.0889    0.0080    0.0080 C   0  0  0  0  0
   -0.5520   -2.1514   -0.0144 H   0  0  0  0  0
   -0.5522    2.1514    0.0078 H   0  0  0  0  0
    1.9316   -2.1504    0.0078 H   0  0  0  0  0
    1.9312    2.1514    0.0144 H   0  0  0  0  0
    3.1729    0.0080    0.0144 H   0  0  0  0  0
  1  3  2  0  0  0
  2  3  2  0  0  0
  3  4  1  0  0  0
  4  5  1  0  0  0
  4  6  2  0  0  0
  5  7  2  0  0  0
  5 10  1  0  0  0
  6  8  1  0  0  0
  6 11  1  0  0  0
  7  9  1  0  0  0
  7 12  1  0  0  0
  8  9  2  0  0  0
  8 13  1  0  0  0
  9 14  1  0  0  0
M  END
> <EXTREG>
nitrobenzene

> <# Confs.>
1

> <LIC50>
0.14

> <Name>
nitrobenzene

$$$$
3-methylnitrobenzene
XX    ILIB04271811163D

 17 17  0  0  1  0              1 V2000
   -2.6533   -1.0557   -0.0112 O   0  0  0  0  0
   -2.6523    1.0571   -0.0152 O   0  0  0  0  0
   -2.0430    0.0112   -0.0080 N   0  2  0  0  0
   -0.7102    0.0080   -0.0080 C   0  0  0  0  0
    1.3892   -1.2114    0.0078 C   0  0  0  0  0
   -0.0104   -1.2129   -0.0080 C   0  0  0  0  0
   -0.0104    1.2129    0.0078 C   0  0  0  0  0
    2.0889    0.0080    0.0080 C   0  0  0  0  0
    1.3892    1.2129    0.0080 C   0  0  0  0  0
    2.1426   -2.5146    0.0078 C   0  0  0  0  0
   -0.5520   -2.1514   -0.0144 H   0  0  0  0  0
   -0.5522    2.1514    0.0078 H   0  0  0  0  0
    3.1729    0.0080    0.0144 H   0  0  0  0  0
    1.9312    2.1514    0.0144 H   0  0  0  0  0
    1.8784   -3.0869    0.8904 H   0  0  0  0  0
    1.8794   -3.0859   -0.8911 H   0  0  0  0  0
    3.2148   -2.3145    0.0128 H   0  0  0  0  0
  1  3  2  0  0  0
  2  3  2  0  0  0
  3  4  1  0  0  0
  4  6  1  0  0  0
  4  7  2  0  0  0
  5  6  2  0  0  0
  5  8  1  0  0  0
  5 10  1  0  0  0
  6 11  1  0  0  0
  7  9  1  0  0  0
  7 12  1  0  0  0
  8  9  2  0  0  0
  8 13  1  0  0  0
  9 14  1  0  0  0
 10 15  1  0  0  0
 10 16  1  0  0  0
 10 17  1  0  0  0
M  END
> <EXTREG>
3-methylnitrobenzene

> <# Confs.>
1

> <LIC50>
0.054

> <Name>
3-methylnitrobenzene

$$$$
1-3-dinitrobenzene
XX    ILIB04271811163D

 16 16  0  0  1  0              1 V2000
    1.4468   -3.4219   -0.0144 O   0  0  0  0  0
    3.2764   -2.3652    0.0144 O   0  0  0  0  0
   -2.6533   -1.0557   -0.0112 O   0  0  0  0  0
   -2.6523    1.0571   -0.0152 O   0  0  0  0  0
    2.0557   -2.3652    0.0078 N   0  2  0  0  0
   -2.0430    0.0112   -0.0080 N   0  2  0  0  0
    1.3892   -1.2114    0.0078 C   0  0  0  0  0
   -0.7102    0.0080   -0.0080 C   0  0  0  0  0
   -0.0104   -1.2129   -0.0080 C   0  0  0  0  0
    2.0889    0.0080    0.0080 C   0  0  0  0  0
   -0.0104    1.2129    0.0078 C   0  0  0  0  0
    1.3892    1.2129    0.0080 C   0  0  0  0  0
   -0.5520   -2.1514   -0.0144 H   0  0  0  0  0
    3.1729    0.0080    0.0144 H   0  0  0  0  0
   -0.5522    2.1514    0.0078 H   0  0  0  0  0
    1.9312    2.1514    0.0144 H   0  0  0  0  0
  1  5  2  0  0  0
  2  5  2  0  0  0
  3  6  2  0  0  0
  4  6  2  0  0  0
  5  7  1  0  0  0
  6  8  1  0  0  0
  7  9  2  0  0  0
  7 10  1  0  0  0
  8  9  1  0  0  0
  8 11  2  0  0  0
  9 13  1  0  0  0
 10 12  2  0  0  0
 10 14  1  0  0  0
 11 12  1  0  0  0
 11 15  1  0  0  0
 12 16  1  0  0  0
M  END
> <EXTREG>
1-3-dinitrobenzene

> <# Confs.>
1

> <LIC50>
0.89

> <Name>
1-3-dinitrobenzene

$$$$
3-4-dichloronitrobenzene
XX    ILIB04271811163D

 14 14  0  0  1  0              1 V2000
    2.2393   -2.6836    0.0078 Cl  0  0  0  0  0
    3.7891    0.0080    0.0088 Cl  0  0  0  0  0
   -2.6533   -1.0557   -0.0112 O   0  0  0  0  0
   -2.6523    1.0571   -0.0152 O   0  0  0  0  0
   -2.0430    0.0112   -0.0080 N   0  2  0  0  0
    1.3892   -1.2114    0.0078 C   0  0  0  0  0
    2.0889    0.0080    0.0080 C   0  0  0  0  0
   -0.7102    0.0080   -0.0080 C   0  0  0  0  0
   -0.0104   -1.2129   -0.0080 C   0  0  0  0  0
    1.3892    1.2129    0.0080 C   0  0  0  0  0
   -0.0104    1.2129    0.0078 C   0  0  0  0  0
   -0.5520   -2.1514   -0.0144 H   0  0  0  0  0
    1.9312    2.1514    0.0144 H   0  0  0  0  0
   -0.5522    2.1514    0.0078 H   0  0  0  0  0
  1  6  1  0  0  0
  2  7  1  0  0  0
  3  5  2  0  0  0
  4  5  2  0  0  0
  5  8  1  0  0  0
  6  7  1  0  0  0
  6  9  2  0  0  0
  7 10  2  0  0  0
  8  9  1  0  0  0
  8 11  2  0  0  0
  9 12  1  0  0  0
 10 11  1  0  0  0
 10 13  1  0  0  0
 11 14  1  0  0  0
M  END
> <EXTREG>
3-4-dichloronitrobenzene

> <# Confs.>
1

> <LIC50>
1.16

> <Name>
3-4-dichloronitrobenzene

$$$$
4-methylnitrobenzene
XX    ILIB04271811163D

 17 17  0  0  1  0              1 V2000
   -2.6533   -1.0557   -0.0112 O   0  0  0  0  0
   -2.6523    1.0571   -0.0152 O   0  0  0  0  0
   -2.0430    0.0112   -0.0080 N   0  2  0  0  0
   -0.7102    0.0080   -0.0080 C   0  0  0  0  0
    2.0889    0.0080    0.0080 C   0  0  0  0  0
   -0.0104   -1.2129   -0.0080 C   0  0  0  0  0
   -0.0104    1.2129    0.0078 C   0  0  0  0  0
    1.3892   -1.2114    0.0078 C   0  0  0  0  0
    1.3892    1.2129    0.0080 C   0  0  0  0  0
    3.5938    0.0080    0.0084 C   0  0  0  0  0
   -0.5520   -2.1514   -0.0144 H   0  0  0  0  0
   -0.5522    2.1514    0.0078 H   0  0  0  0  0
    1.9316   -2.1504    0.0078 H   0  0  0  0  0
    1.9312    2.1514    0.0144 H   0  0  0  0  0
    3.9570   -0.5142    0.8928 H   0  0  0  0  0
    3.9580   -0.5134   -0.8887 H   0  0  0  0  0
    3.9580    1.0288    0.0112 H   0  0  0  0  0
  1  3  2  0  0  0
  2  3  2  0  0  0
  3  4  1  0  0  0
  4  6  1  0  0  0
  4  7  2  0  0  0
  5  8  1  0  0  0
  5  9  2  0  0  0
  5 10  1  0  0  0
  6  8  2  0  0  0
  6 11  1  0  0  0
  7  9  1  0  0  0
  7 12  1  0  0  0
  8 13  1  0  0  0
  9 14  1  0  0  0
 10 15  1  0  0  0
 10 16  1  0  0  0
 10 17  1  0  0  0
M  END
> <EXTREG>
4-methylnitrobenzene

> <# Confs.>
1

> <LIC50>
0.17

> <Name>
4-methylnitrobenzene

$$$$
1-4-dinitrobenzene
XX    ILIB04271811163D

 16 16  0  0  1  0              1 V2000
    4.0312   -1.0557    0.0080 O   0  0  0  0  0
    4.0312    1.0566    0.0112 O   0  0  0  0  0
   -2.6533   -1.0557   -0.0112 O   0  0  0  0  0
   -2.6523    1.0571   -0.0152 O   0  0  0  0  0
    3.4219    0.0080    0.0080 N   0  2  0  0  0
   -2.0430    0.0112   -0.0080 N   0  2  0  0  0
    2.0889    0.0080    0.0080 C   0  0  0  0  0
   -0.7102    0.0080   -0.0080 C   0  0  0  0  0
    1.3892   -1.2114    0.0078 C   0  0  0  0  0
   -0.0104   -1.2129   -0.0080 C   0  0  0  0  0
    1.3892    1.2129    0.0080 C   0  0  0  0  0
   -0.0104    1.2129    0.0078 C   0  0  0  0  0
    1.9316   -2.1504    0.0078 H   0  0  0  0  0
   -0.5520   -2.1514   -0.0144 H   0  0  0  0  0
    1.9312    2.1514    0.0144 H   0  0  0  0  0
   -0.5522    2.1514    0.0078 H   0  0  0  0  0
  1  5  2  0  0  0
  2  5  2  0  0  0
  3  6  2  0  0  0
  4  6  2  0  0  0
  5  7  1  0  0  0
  6  8  1  0  0  0
  7  9  1  0  0  0
  7 11  2  0  0  0
  8 10  1  0  0  0
  8 12  2  0  0  0
  9 10  2  0  0  0
  9 13  1  0  0  0
 10 14  1  0  0  0
 11 12  1  0  0  0
 11 15  1  0  0  0
 12 16  1  0  0  0
M  END
> <EXTREG>
1-4-dinitrobenzene

> <# Confs.>
1

> <LIC50>
1.3

> <Name>
1-4-dinitrobenzene

$$$$
4-chloronitrobenzene
XX    ILIB04271811163D

 14 14  0  0  1  0              1 V2000
    3.7891    0.0080    0.0088 Cl  0  0  0  0  0
   -2.6533   -1.0557   -0.0112 O   0  0  0  0  0
   -2.6523    1.0571   -0.0152 O   0  0  0  0  0
   -2.0430    0.0112   -0.0080 N   0  2  0  0  0
    2.0889    0.0080    0.0080 C   0  0  0  0  0
   -0.7102    0.0080   -0.0080 C   0  0  0  0  0
    1.3892   -1.2114    0.0078 C   0  0  0  0  0
    1.3892    1.2129    0.0080 C   0  0  0  0  0
   -0.0104   -1.2129   -0.0080 C   0  0  0  0  0
   -0.0104    1.2129    0.0078 C   0  0  0  0  0
    1.9316   -2.1504    0.0078 H   0  0  0  0  0
    1.9312    2.1514    0.0144 H   0  0  0  0  0
   -0.5520   -2.1514   -0.0144 H   0  0  0  0  0
   -0.5522    2.1514    0.0078 H   0  0  0  0  0
  1  5  1  0  0  0
  2  4  2  0  0  0
  3  4  2  0  0  0
  4  6  1  0  0  0
  5  7  1  0  0  0
  5  8  2  0  0  0
  6  9  1  0  0  0
  6 10  2  0  0  0
  7  9  2  0  0  0
  7 11  1  0  0  0
  8 10  1  0  0  0
  8 12  1  0  0  0
  9 13  1  0  0  0
 10 14  1  0  0  0
M  END
> <EXTREG>
4-chloronitrobenzene

> <# Confs.>
1

> <LIC50>
0.43

> <Name>
4-chloronitrobenzene

$$$$
2-3-5-6-tetrachloronitrobenzene
XX    ILIB04271811163D

 14 14  0  0  1  0              1 V2000
   -0.8604    2.6846    0.0078 Cl  0  0  0  0  0
   -0.8599   -2.6846   -0.0088 Cl  0  0  0  0  0
    2.2393    2.6846    0.0088 Cl  0  0  0  0  0
    2.2393   -2.6836    0.0078 Cl  0  0  0  0  0
   -2.6533   -1.0557   -0.0112 O   0  0  0  0  0
   -2.6523    1.0571   -0.0152 O   0  0  0  0  0
   -2.0430    0.0112   -0.0080 N   0  2  0  0  0
   -0.0104    1.2129    0.0078 C   0  0  0  0  0
   -0.0104   -1.2129   -0.0080 C   0  0  0  0  0
    1.3892    1.2129    0.0080 C   0  0  0  0  0
    1.3892   -1.2114    0.0078 C   0  0  0  0  0
   -0.7102    0.0080   -0.0080 C   0  0  0  0  0
    2.0889    0.0080    0.0080 C   0  0  0  0  0
    3.1729    0.0080    0.0144 H   0  0  0  0  0
  1  8  1  0  0  0
  2  9  1  0  0  0
  3 10  1  0  0  0
  4 11  1  0  0  0
  5  7  2  0  0  0
  6  7  2  0  0  0
  7 12  1  0  0  0
  8 10  1  0  0  0
  8 12  2  0  0  0
  9 11  2  0  0  0
  9 12  1  0  0  0
 10 13  2  0  0  0
 11 13  1  0  0  0
 13 14  1  0  0  0
M  END
> <EXTREG>
2-3-5-6-tetrachloronitrobenzene

> <# Confs.>
1

> <LIC50>
1.82

> <Name>
2-3-5-6-tetrachloronitrobenzene

$$$$
6-methyl-1-3-dinitrobenzene
XX    ILIB04271811163D

 19 19  0  0  1  0              1 V2000
   -2.6533   -1.0557   -0.0112 O   0  0  0  0  0
   -2.6523    1.0571   -0.0152 O   0  0  0  0  0
    1.4468   -3.4219   -0.0144 O   0  0  0  0  0
    3.2764   -2.3652    0.0144 O   0  0  0  0  0
   -2.0430    0.0112   -0.0080 N   0  2  0  0  0
    2.0557   -2.3652    0.0078 N   0  2  0  0  0
   -0.7102    0.0080   -0.0080 C   0  0  0  0  0
    1.3892   -1.2114    0.0078 C   0  0  0  0  0
   -0.0104    1.2129    0.0078 C   0  0  0  0  0
   -0.0104   -1.2129   -0.0080 C   0  0  0  0  0
    2.0889    0.0080    0.0080 C   0  0  0  0  0
    1.3892    1.2129    0.0080 C   0  0  0  0  0
   -0.7627    2.5156    0.0078 C   0  0  0  0  0
   -0.5520   -2.1514   -0.0144 H   0  0  0  0  0
    3.1729    0.0080    0.0144 H   0  0  0  0  0
    1.9312    2.1514    0.0144 H   0  0  0  0  0
   -1.3892    2.5742   -0.8911 H   0  0  0  0  0
   -1.3906    2.5732    0.8904 H   0  0  0  0  0
   -0.0540    3.3447    0.0128 H   0  0  0  0  0
  1  5  2  0  0  0
  2  5  2  0  0  0
  3  6  2  0  0  0
  4  6  2  0  0  0
  5  7  1  0  0  0
  6  8  1  0  0  0
  7  9  2  0  0  0
  7 10  1  0  0  0
  8 10  2  0  0  0
  8 11  1  0  0  0
  9 12  1  0  0  0
  9 13  1  0  0  0
 10 14  1  0  0  0
 11 12  2  0  0  0
 11 15  1  0  0  0
 12 16  1  0  0  0
 13 17  1  0  0  0
 13 18  1  0  0  0
 13 19  1  0  0  0
M  END
> <EXTREG>
6-methyl-1-3-dinitrobenzene

> <# Confs.>
1

> <LIC50>
0.87

> <Name>
6-methyl-1-3-dinitrobenzene

$$$$
3-chloronitrobenzene
XX    ILIB04271811163D

 14 14  0  0  1  0              1 V2000
    2.2393   -2.6836    0.0078 Cl  0  0  0  0  0
   -2.6533   -1.0557   -0.0112 O   0  0  0  0  0
   -2.6523    1.0571   -0.0152 O   0  0  0  0  0
   -2.0430    0.0112   -0.0080 N   0  2  0  0  0
    1.3892   -1.2114    0.0078 C   0  0  0  0  0
   -0.7102    0.0080   -0.0080 C   0  0  0  0  0
   -0.0104   -1.2129   -0.0080 C   0  0  0  0  0
    2.0889    0.0080    0.0080 C   0  0  0  0  0
   -0.0104    1.2129    0.0078 C   0  0  0  0  0
    1.3892    1.2129    0.0080 C   0  0  0  0  0
   -0.5520   -2.1514   -0.0144 H   0  0  0  0  0
    3.1729    0.0080    0.0144 H   0  0  0  0  0
   -0.5522    2.1514    0.0078 H   0  0  0  0  0
    1.9312    2.1514    0.0144 H   0  0  0  0  0
  1  5  1  0  0  0
  2  4  2  0  0  0
  3  4  2  0  0  0
  4  6  1  0  0  0
  5  7  2  0  0  0
  5  8  1  0  0  0
  6  7  1  0  0  0
  6  9  2  0  0  0
  7 11  1  0  0  0
  8 10  2  0  0  0
  8 12  1  0  0  0
  9 10  1  0  0  0
  9 13  1  0  0  0
 10 14  1  0  0  0
M  END
> <EXTREG>
3-chloronitrobenzene

> <# Confs.>
1

> <LIC50>
0.73

> <Name>
3-chloronitrobenzene

$$$$
1-2-dinitrobenzene
XX    ILIB04271811163D

 16 16  0  0  1  0              1 V2000
   -0.0665   -3.4238   -0.0080 O   0  0  0  0  0
   -1.8965   -2.3672   -0.0112 O   0  0  0  0  0
   -2.6533   -1.0557   -0.0112 O   0  0  0  0  0
   -2.6523    1.0571   -0.0152 O   0  0  0  0  0
   -0.6765   -2.3672   -0.0080 N   0  2  0  0  0
   -2.0430    0.0112   -0.0080 N   0  2  0  0  0
   -0.0104   -1.2129   -0.0080 C   0  0  0  0  0
   -0.7102    0.0080   -0.0080 C   0  0  0  0  0
    1.3892   -1.2114    0.0078 C   0  0  0  0  0
   -0.0104    1.2129    0.0078 C   0  0  0  0  0
    2.0889    0.0080    0.0080 C   0  0  0  0  0
    1.3892    1.2129    0.0080 C   0  0  0  0  0
    1.9316   -2.1504    0.0078 H   0  0  0  0  0
   -0.5522    2.1514    0.0078 H   0  0  0  0  0
    3.1729    0.0080    0.0144 H   0  0  0  0  0
    1.9312    2.1514    0.0144 H   0  0  0  0  0
  1  5  2  0  0  0
  2  5  2  0  0  0
  3  6  2  0  0  0
  4  6  2  0  0  0
  5  7  1  0  0  0
  6  8  1  0  0  0
  7  8  1  0  0  0
  7  9  2  0  0  0
  8 10  2  0  0  0
  9 11  1  0  0  0
  9 13  1  0  0  0
 10 12  1  0  0  0
 10 14  1  0  0  0
 11 12  2  0  0  0
 11 15  1  0  0  0
 12 16  1  0  0  0
M  END
> <EXTREG>
1-2-dinitrobenzene

> <# Confs.>
1

> <LIC50>
1.25

> <Name>
1-2-dinitrobenzene

$$$$
3-bromonitrobenzene
XX    ILIB04271811163D

 14 14  0  0  1  0              1 V2000
    2.3145   -2.8135    0.0078 Br  0  0  0  0  0
   -2.6533   -1.0557   -0.0112 O   0  0  0  0  0
   -2.6523    1.0571   -0.0152 O   0  0  0  0  0
   -2.0430    0.0112   -0.0080 N   0  2  0  0  0
    1.3892   -1.2114    0.0078 C   0  0  0  0  0
   -0.7102    0.0080   -0.0080 C   0  0  0  0  0
   -0.0104   -1.2129   -0.0080 C   0  0  0  0  0
    2.0889    0.0080    0.0080 C   0  0  0  0  0
   -0.0104    1.2129    0.0078 C   0  0  0  0  0
    1.3892    1.2129    0.0080 C   0  0  0  0  0
   -0.5520   -2.1514   -0.0144 H   0  0  0  0  0
    3.1729    0.0080    0.0144 H   0  0  0  0  0
   -0.5522    2.1514    0.0078 H   0  0  0  0  0
    1.9312    2.1514    0.0144 H   0  0  0  0  0
  1  5  1  0  0  0
  2  4  2  0  0  0
  3  4  2  0  0  0
  4  6  1  0  0  0
  5  7  2  0  0  0
  5  8  1  0  0  0
  6  7  1  0  0  0
  6  9  2  0  0  0
  7 11  1  0  0  0
  8 10  2  0  0  0
  8 12  1  0  0  0
  9 10  1  0  0  0
  9 13  1  0  0  0
 10 14  1  0  0  0
M  END
> <EXTREG>
3-bromonitrobenzene

> <# Confs.>
1

> <LIC50>
0.75

> <Name>
3-bromonitrobenzene

$$$$
6-bromo-1-3-dinitrobenzene
XX    ILIB04271811163D

 16 16  0  0  1  0              1 V2000
   -0.9353    2.8145    0.0078 Br  0  0  0  0  0
   -2.6533   -1.0557   -0.0112 O   0  0  0  0  0
   -2.6523    1.0571   -0.0152 O   0  0  0  0  0
    1.4468   -3.4219   -0.0144 O   0  0  0  0  0
    3.2764   -2.3652    0.0144 O   0  0  0  0  0
   -2.0430    0.0112   -0.0080 N   0  2  0  0  0
    2.0557   -2.3652    0.0078 N   0  2  0  0  0
   -0.0104    1.2129    0.0078 C   0  0  0  0  0
   -0.7102    0.0080   -0.0080 C   0  0  0  0  0
    1.3892   -1.2114    0.0078 C   0  0  0  0  0
    1.3892    1.2129    0.0080 C   0  0  0  0  0
   -0.0104   -1.2129   -0.0080 C   0  0  0  0  0
    2.0889    0.0080    0.0080 C   0  0  0  0  0
    1.9312    2.1514    0.0144 H   0  0  0  0  0
   -0.5520   -2.1514   -0.0144 H   0  0  0  0  0
    3.1729    0.0080    0.0144 H   0  0  0  0  0
  1  8  1  0  0  0
  2  6  2  0  0  0
  3  6  2  0  0  0
  4  7  2  0  0  0
  5  7  2  0  0  0
  6  9  1  0  0  0
  7 10  1  0  0  0
  8  9  2  0  0  0
  8 11  1  0  0  0
  9 12  1  0  0  0
 10 12  2  0  0  0
 10 13  1  0  0  0
 11 13  2  0  0  0
 11 14  1  0  0  0
 12 15  1  0  0  0
 13 16  1  0  0  0
M  END
> <EXTREG>
6-bromo-1-3-dinitrobenzene

> <# Confs.>
1

> <LIC50>
2.31

> <Name>
6-bromo-1-3-dinitrobenzene

$$$$
3-bromonitrobenzene
XX    ILIB04271811163D

 14 14  0  0  1  0              1 V2000
    2.3145   -2.8135    0.0078 Br  0  0  0  0  0
   -2.6533   -1.0557   -0.0112 O   0  0  0  0  0
   -2.6523    1.0571   -0.0152 O   0  0  0  0  0
   -2.0430    0.0112   -0.0080 N   0  2  0  0  0
    1.3892   -1.2114    0.0078 C   0  0  0  0  0
   -0.7102    0.0080   -0.0080 C   0  0  0  0  0
   -0.0104   -1.2129   -0.0080 C   0  0  0  0  0
    2.0889    0.0080    0.0080 C   0  0  0  0  0
   -0.0104    1.2129    0.0078 C   0  0  0  0  0
    1.3892    1.2129    0.0080 C   0  0  0  0  0
   -0.5520   -2.1514   -0.0144 H   0  0  0  0  0
    3.1729    0.0080    0.0144 H   0  0  0  0  0
   -0.5522    2.1514    0.0078 H   0  0  0  0  0
    1.9312    2.1514    0.0144 H   0  0  0  0  0
  1  5  1  0  0  0
  2  4  2  0  0  0
  3  4  2  0  0  0
  4  6  1  0  0  0
  5  7  2  0  0  0
  5  8  1  0  0  0
  6  7  1  0  0  0
  6  9  2  0  0  0
  7 11  1  0  0  0
  8 10  2  0  0  0
  8 12  1  0  0  0
  9 10  1  0  0  0
  9 13  1  0  0  0
 10 14  1  0  0  0
M  END
> <EXTREG>
3-bromonitrobenzene

> <# Confs.>
1

> <LIC50>
1.03

> <Name>
3-bromonitrobenzene

$$$$
4-bromonitrobenzene
XX    ILIB04271811163D

 14 14  0  0  1  0              1 V2000
    3.9395    0.0080    0.0092 Br  0  0  0  0  0
   -2.6533   -1.0557   -0.0112 O   0  0  0  0  0
   -2.6523    1.0571   -0.0152 O   0  0  0  0  0
   -2.0430    0.0112   -0.0080 N   0  2  0  0  0
    2.0889    0.0080    0.0080 C   0  0  0  0  0
   -0.7102    0.0080   -0.0080 C   0  0  0  0  0
    1.3892   -1.2114    0.0078 C   0  0  0  0  0
    1.3892    1.2129    0.0080 C   0  0  0  0  0
   -0.0104   -1.2129   -0.0080 C   0  0  0  0  0
   -0.0104    1.2129    0.0078 C   0  0  0  0  0
    1.9316   -2.1504    0.0078 H   0  0  0  0  0
    1.9312    2.1514    0.0144 H   0  0  0  0  0
   -0.5520   -2.1514   -0.0144 H   0  0  0  0  0
   -0.5522    2.1514    0.0078 H   0  0  0  0  0
  1  5  1  0  0  0
  2  4  2  0  0  0
  3  4  2  0  0  0
  4  6  1  0  0  0
  5  7  1  0  0  0
  5  8  2  0  0  0
  6  9  1  0  0  0
  6 10  2  0  0  0
  7  9  2  0  0  0
  7 11  1  0  0  0
  8 10  1  0  0  0
  8 12  1  0  0  0
  9 13  1  0  0  0
 10 14  1  0  0  0
M  END
> <EXTREG>
4-bromonitrobenzene

> <# Confs.>
1

> <LIC50>
0.38

> <Name>
4-bromonitrobenzene

$$$$
2-4-6-trimethylnitrobenzene
XX    ILIB04271811163D

 23 23  0  0  1  0              1 V2000
   -2.6533   -1.0557   -0.0112 O   0  0  0  0  0
   -2.6523    1.0571   -0.0152 O   0  0  0  0  0
   -2.0430    0.0112   -0.0080 N   0  2  0  0  0
   -0.7102    0.0080   -0.0080 C   0  0  0  0  0
   -0.0104   -1.2129   -0.0080 C   0  0  0  0  0
   -0.0104    1.2129    0.0078 C   0  0  0  0  0
    2.0889    0.0080    0.0080 C   0  0  0  0  0
    1.3892   -1.2114    0.0078 C   0  0  0  0  0
    1.3892    1.2129    0.0080 C   0  0  0  0  0
   -0.7627   -2.5156   -0.0084 C   0  0  0  0  0
   -0.7627    2.5156    0.0078 C   0  0  0  0  0
    3.5938    0.0080    0.0084 C   0  0  0  0  0
    1.9316   -2.1504    0.0078 H   0  0  0  0  0
    1.9312    2.1514    0.0144 H   0  0  0  0  0
   -0.4983   -3.0879   -0.8928 H   0  0  0  0  0
   -0.4995   -3.0879    0.8887 H   0  0  0  0  0
   -1.8350   -2.3164   -0.0112 H   0  0  0  0  0
   -1.3892    2.5742   -0.8911 H   0  0  0  0  0
   -1.3906    2.5732    0.8904 H   0  0  0  0  0
   -0.0540    3.3447    0.0128 H   0  0  0  0  0
    3.9570   -0.5142    0.8928 H   0  0  0  0  0
    3.9580   -0.5134   -0.8887 H   0  0  0  0  0
    3.9580    1.0288    0.0112 H   0  0  0  0  0
  1  3  2  0  0  0
  2  3  2  0  0  0
  3  4  1  0  0  0
  4  5  1  0  0  0
  4  6  2  0  0  0
  5  8  2  0  0  0
  5 10  1  0  0  0
  6  9  1  0  0  0
  6 11  1  0  0  0
  7  8  1  0  0  0
  7  9  2  0  0  0
  7 12  1  0  0  0
  8 13  1  0  0  0
  9 14  1  0  0  0
 10 15  1  0  0  0
 10 16  1  0  0  0
 10 17  1  0  0  0
 11 18  1  0  0  0
 11 19  1  0  0  0
 11 20  1  0  0  0
 12 21  1  0  0  0
 12 22  1  0  0  0
 12 23  1  0  0  0
M  END
> <EXTREG>
2-4-6-trimethylnitrobenzene

> <# Confs.>
1

> <LIC50>
0.86

> <Name>
2-4-6-trimethylnitrobenzene

$$$$
5-methyl-1-2-dinitrobenzene
XX    ILIB04271811163D

 19 19  0  0  1  0              1 V2000
   -2.6533   -1.0557   -0.0112 O   0  0  0  0  0
   -2.6523    1.0571   -0.0152 O   0  0  0  0  0
   -0.0665   -3.4238   -0.0080 O   0  0  0  0  0
   -1.8965   -2.3672   -0.0112 O   0  0  0  0  0
   -2.0430    0.0112   -0.0080 N   0  2  0  0  0
   -0.6765   -2.3672   -0.0080 N   0  2  0  0  0
   -0.7102    0.0080   -0.0080 C   0  0  0  0  0
   -0.0104   -1.2129   -0.0080 C   0  0  0  0  0
    1.3892    1.2129    0.0080 C   0  0  0  0  0
   -0.0104    1.2129    0.0078 C   0  0  0  0  0
    1.3892   -1.2114    0.0078 C   0  0  0  0  0
    2.0889    0.0080    0.0080 C   0  0  0  0  0
    2.1416    2.5156    0.0084 C   0  0  0  0  0
   -0.5522    2.1514    0.0078 H   0  0  0  0  0
    1.9316   -2.1504    0.0078 H   0  0  0  0  0
    3.1729    0.0080    0.0144 H   0  0  0  0  0
    2.7686    2.5732    0.8931 H   0  0  0  0  0
    2.7695    2.5742   -0.8882 H   0  0  0  0  0
    1.4331    3.3447    0.0152 H   0  0  0  0  0
  1  5  2  0  0  0
  2  5  2  0  0  0
  3  6  2  0  0  0
  4  6  2  0  0  0
  5  7  1  0  0  0
  6  8  1  0  0  0
  7  8  1  0  0  0
  7 10  2  0  0  0
  8 11  2  0  0  0
  9 10  1  0  0  0
  9 12  2  0  0  0
  9 13  1  0  0  0
 10 14  1  0  0  0
 11 12  1  0  0  0
 11 15  1  0  0  0
 12 16  1  0  0  0
 13 17  1  0  0  0
 13 18  1  0  0  0
 13 19  1  0  0  0
M  END
> <EXTREG>
5-methyl-1-2-dinitrobenzene

> <# Confs.>
1

> <LIC50>
1.52

> <Name>
5-methyl-1-2-dinitrobenzene

$$$$
2-4-dichloronitrobenzene
XX    ILIB04271811163D

 14 14  0  0  1  0              1 V2000
   -0.8599   -2.6846   -0.0088 Cl  0  0  0  0  0
    3.7891    0.0080    0.0088 Cl  0  0  0  0  0
   -2.6533   -1.0557   -0.0112 O   0  0  0  0  0
   -2.6523    1.0571   -0.0152 O   0  0  0  0  0
   -2.0430    0.0112   -0.0080 N   0  2  0  0  0
   -0.0104   -1.2129   -0.0080 C   0  0  0  0  0
    2.0889    0.0080    0.0080 C   0  0  0  0  0
   -0.7102    0.0080   -0.0080 C   0  0  0  0  0
    1.3892   -1.2114    0.0078 C   0  0  0  0  0
    1.3892    1.2129    0.0080 C   0  0  0  0  0
   -0.0104    1.2129    0.0078 C   0  0  0  0  0
    1.9316   -2.1504    0.0078 H   0  0  0  0  0
    1.9312    2.1514    0.0144 H   0  0  0  0  0
   -0.5522    2.1514    0.0078 H   0  0  0  0  0
  1  6  1  0  0  0
  2  7  1  0  0  0
  3  5  2  0  0  0
  4  5  2  0  0  0
  5  8  1  0  0  0
  6  8  1  0  0  0
  6  9  2  0  0  0
  7  9  1  0  0  0
  7 10  2  0  0  0
  8 11  2  0  0  0
  9 12  1  0  0  0
 10 11  1  0  0  0
 10 13  1  0  0  0
 11 14  1  0  0  0
M  END
> <EXTREG>
2-4-dichloronitrobenzene

> <# Confs.>
1

> <LIC50>
0.99

> <Name>
2-4-dichloronitrobenzene

$$$$
3-5-dichloronitrobenzene
XX    ILIB04271811163D

 14 14  0  0  1  0              1 V2000
    2.2393   -2.6836    0.0078 Cl  0  0  0  0  0
    2.2393    2.6846    0.0088 Cl  0  0  0  0  0
   -2.6533   -1.0557   -0.0112 O   0  0  0  0  0
   -2.6523    1.0571   -0.0152 O   0  0  0  0  0
   -2.0430    0.0112   -0.0080 N   0  2  0  0  0
    1.3892   -1.2114    0.0078 C   0  0  0  0  0
    1.3892    1.2129    0.0080 C   0  0  0  0  0
   -0.7102    0.0080   -0.0080 C   0  0  0  0  0
    2.0889    0.0080    0.0080 C   0  0  0  0  0
   -0.0104   -1.2129   -0.0080 C   0  0  0  0  0
   -0.0104    1.2129    0.0078 C   0  0  0  0  0
    3.1729    0.0080    0.0144 H   0  0  0  0  0
   -0.5520   -2.1514   -0.0144 H   0  0  0  0  0
   -0.5522    2.1514    0.0078 H   0  0  0  0  0
  1  6  1  0  0  0
  2  7  1  0  0  0
  3  5  2  0  0  0
  4  5  2  0  0  0
  5  8  1  0  0  0
  6  9  1  0  0  0
  6 10  2  0  0  0
  7  9  2  0  0  0
  7 11  1  0  0  0
  8 10  1  0  0  0
  8 11  2  0  0  0
  9 12  1  0  0  0
 10 13  1  0  0  0
 11 14  1  0  0  0
M  END
> <EXTREG>
3-5-dichloronitrobenzene

> <# Confs.>
1

> <LIC50>
1.13

> <Name>
3-5-dichloronitrobenzene

$$$$
6-iodo-1-3dinitrobenzene
XX    ILIB04271811163D

 16 16  0  0  1  0              1 V2000
   -1.0352    2.9883    0.0078 I   0  0  0  0  0
   -2.6533   -1.0557   -0.0112 O   0  0  0  0  0
   -2.6523    1.0571   -0.0152 O   0  0  0  0  0
    1.4468   -3.4219   -0.0144 O   0  0  0  0  0
    3.2764   -2.3652    0.0144 O   0  0  0  0  0
   -2.0430    0.0112   -0.0080 N   0  2  0  0  0
    2.0557   -2.3652    0.0078 N   0  2  0  0  0
   -0.0104    1.2129    0.0078 C   0  0  0  0  0
   -0.7102    0.0080   -0.0080 C   0  0  0  0  0
    1.3892   -1.2114    0.0078 C   0  0  0  0  0
    1.3892    1.2129    0.0080 C   0  0  0  0  0
   -0.0104   -1.2129   -0.0080 C   0  0  0  0  0
    2.0889    0.0080    0.0080 C   0  0  0  0  0
    1.9312    2.1514    0.0144 H   0  0  0  0  0
   -0.5520   -2.1514   -0.0144 H   0  0  0  0  0
    3.1729    0.0080    0.0144 H   0  0  0  0  0
  1  8  1  0  0  0
  2  6  2  0  0  0
  3  6  2  0  0  0
  4  7  2  0  0  0
  5  7  2  0  0  0
  6  9  1  0  0  0
  7 10  1  0  0  0
  8  9  2  0  0  0
  8 11  1  0  0  0
  9 12  1  0  0  0
 10 12  2  0  0  0
 10 13  1  0  0  0
 11 13  2  0  0  0
 11 14  1  0  0  0
 12 15  1  0  0  0
 13 16  1  0  0  0
M  END
> <EXTREG>
6-iodo-1-3dinitrobenzene

> <# Confs.>
1

> <LIC50>
2.12

> <Name>
6-iodo-1-3dinitrobenzene

$$$$
2-3-4-5-tetrachloronitrobenzene
XX    ILIB04271811163D

 14 14  0  0  1  0              1 V2000
    2.2393   -2.6836    0.0078 Cl  0  0  0  0  0
    3.7891    0.0080    0.0088 Cl  0  0  0  0  0
   -0.8599   -2.6846   -0.0088 Cl  0  0  0  0  0
    2.2393    2.6846    0.0088 Cl  0  0  0  0  0
   -2.6533   -1.0557   -0.0112 O   0  0  0  0  0
   -2.6523    1.0571   -0.0152 O   0  0  0  0  0
   -2.0430    0.0112   -0.0080 N   0  2  0  0  0
    1.3892   -1.2114    0.0078 C   0  0  0  0  0
    2.0889    0.0080    0.0080 C   0  0  0  0  0
   -0.0104   -1.2129   -0.0080 C   0  0  0  0  0
    1.3892    1.2129    0.0080 C   0  0  0  0  0
   -0.7102    0.0080   -0.0080 C   0  0  0  0  0
   -0.0104    1.2129    0.0078 C   0  0  0  0  0
   -0.5522    2.1514    0.0078 H   0  0  0  0  0
  1  8  1  0  0  0
  2  9  1  0  0  0
  3 10  1  0  0  0
  4 11  1  0  0  0
  5  7  2  0  0  0
  6  7  2  0  0  0
  7 12  1  0  0  0
  8  9  1  0  0  0
  8 10  2  0  0  0
  9 11  2  0  0  0
 10 12  1  0  0  0
 11 13  1  0  0  0
 12 13  2  0  0  0
 13 14  1  0  0  0
M  END
> <EXTREG>
2-3-4-5-tetrachloronitrobenzene

> <# Confs.>
1

> <LIC50>
1.78

> <Name>
2-3-4-5-tetrachloronitrobenzene

$$$$
2-3-dichloronitrobenzene
XX    ILIB04271811163D

 14 14  0  0  1  0              1 V2000
   -0.8599   -2.6846   -0.0088 Cl  0  0  0  0  0
    2.2393   -2.6836    0.0078 Cl  0  0  0  0  0
   -2.6533   -1.0557   -0.0112 O   0  0  0  0  0
   -2.6523    1.0571   -0.0152 O   0  0  0  0  0
   -2.0430    0.0112   -0.0080 N   0  2  0  0  0
   -0.0104   -1.2129   -0.0080 C   0  0  0  0  0
    1.3892   -1.2114    0.0078 C   0  0  0  0  0
   -0.7102    0.0080   -0.0080 C   0  0  0  0  0
    2.0889    0.0080    0.0080 C   0  0  0  0  0
   -0.0104    1.2129    0.0078 C   0  0  0  0  0
    1.3892    1.2129    0.0080 C   0  0  0  0  0
    3.1729    0.0080    0.0144 H   0  0  0  0  0
   -0.5522    2.1514    0.0078 H   0  0  0  0  0
    1.9312    2.1514    0.0144 H   0  0  0  0  0
  1  6  1  0  0  0
  2  7  1  0  0  0
  3  5  2  0  0  0
  4  5  2  0  0  0
  5  8  1  0  0  0
  6  7  2  0  0  0
  6  8  1  0  0  0
  7  9  1  0  0  0
  8 10  2  0  0  0
  9 11  2  0  0  0
  9 12  1  0  0  0
 10 11  1  0  0  0
 10 13  1  0  0  0
 11 14  1  0  0  0
M  END
> <EXTREG>
2-3-dichloronitrobenzene

> <# Confs.>
1

> <LIC50>
1.07

> <Name>
2-3-dichloronitrobenzene

$$$$
2-5-dibromonitrobenzene
XX    ILIB04271811163D

 14 14  0  0  1  0              1 V2000
   -0.9351   -2.8145   -0.0092 Br  0  0  0  0  0
    2.3145    2.8145    0.0092 Br  0  0  0  0  0
   -2.6533   -1.0557   -0.0112 O   0  0  0  0  0
   -2.6523    1.0571   -0.0152 O   0  0  0  0  0
   -2.0430    0.0112   -0.0080 N   0  2  0  0  0
   -0.0104   -1.2129   -0.0080 C   0  0  0  0  0
    1.3892    1.2129    0.0080 C   0  0  0  0  0
   -0.7102    0.0080   -0.0080 C   0  0  0  0  0
   -0.0104    1.2129    0.0078 C   0  0  0  0  0
    1.3892   -1.2114    0.0078 C   0  0  0  0  0
    2.0889    0.0080    0.0080 C   0  0  0  0  0
   -0.5522    2.1514    0.0078 H   0  0  0  0  0
    1.9316   -2.1504    0.0078 H   0  0  0  0  0
    3.1729    0.0080    0.0144 H   0  0  0  0  0
  1  6  1  0  0  0
  2  7  1  0  0  0
  3  5  2  0  0  0
  4  5  2  0  0  0
  5  8  1  0  0  0
  6  8  1  0  0  0
  6 10  2  0  0  0
  7  9  1  0  0  0
  7 11  2  0  0  0
  8  9  2  0  0  0
  9 12  1  0  0  0
 10 11  1  0  0  0
 10 13  1  0  0  0
 11 14  1  0  0  0
M  END
> <EXTREG>
2-5-dibromonitrobenzene

> <# Confs.>
1

> <LIC50>
1.37

> <Name>
2-5-dibromonitrobenzene

$$$$
1-2-dichloro-4-5-dinitrobenzene
XX    ILIB04271811163D

 16 16  0  0  1  0              1 V2000
    3.7891    0.0080    0.0088 Cl  0  0  0  0  0
    2.2393    2.6846    0.0088 Cl  0  0  0  0  0
   -0.0665   -3.4238   -0.0080 O   0  0  0  0  0
   -1.8965   -2.3672   -0.0112 O   0  0  0  0  0
   -2.6533   -1.0557   -0.0112 O   0  0  0  0  0
   -2.6523    1.0571   -0.0152 O   0  0  0  0  0
   -0.6765   -2.3672   -0.0080 N   0  2  0  0  0
   -2.0430    0.0112   -0.0080 N   0  2  0  0  0
    2.0889    0.0080    0.0080 C   0  0  0  0  0
    1.3892    1.2129    0.0080 C   0  0  0  0  0
   -0.0104   -1.2129   -0.0080 C   0  0  0  0  0
   -0.7102    0.0080   -0.0080 C   0  0  0  0  0
    1.3892   -1.2114    0.0078 C   0  0  0  0  0
   -0.0104    1.2129    0.0078 C   0  0  0  0  0
    1.9316   -2.1504    0.0078 H   0  0  0  0  0
   -0.5522    2.1514    0.0078 H   0  0  0  0  0
  1  9  1  0  0  0
  2 10  1  0  0  0
  3  7  2  0  0  0
  4  7  2  0  0  0
  5  8  2  0  0  0
  6  8  2  0  0  0
  7 11  1  0  0  0
  8 12  1  0  0  0
  9 10  2  0  0  0
  9 13  1  0  0  0
 10 14  1  0  0  0
 11 12  1  0  0  0
 11 13  2  0  0  0
 12 14  2  0  0  0
 13 15  1  0  0  0
 14 16  1  0  0  0
M  END
> <EXTREG>
1-2-dichloro-4-5-dinitrobenzene

> <# Confs.>
1

> <LIC50>
2.21

> <Name>
1-2-dichloro-4-5-dinitrobenzene

$$$$
3-methyl-4-bromonitrobenzene
XX    ILIB04271811163D

 17 17  0  0  1  0              1 V2000
    3.9395    0.0080    0.0092 Br  0  0  0  0  0
   -2.6533   -1.0557   -0.0112 O   0  0  0  0  0
   -2.6523    1.0571   -0.0152 O   0  0  0  0  0
   -2.0430    0.0112   -0.0080 N   0  2  0  0  0
    2.0889    0.0080    0.0080 C   0  0  0  0  0
   -0.7102    0.0080   -0.0080 C   0  0  0  0  0
    1.3892   -1.2114    0.0078 C   0  0  0  0  0
    1.3892    1.2129    0.0080 C   0  0  0  0  0
   -0.0104   -1.2129   -0.0080 C   0  0  0  0  0
   -0.0104    1.2129    0.0078 C   0  0  0  0  0
    2.1426   -2.5146    0.0078 C   0  0  0  0  0
    1.9312    2.1514    0.0144 H   0  0  0  0  0
   -0.5520   -2.1514   -0.0144 H   0  0  0  0  0
   -0.5522    2.1514    0.0078 H   0  0  0  0  0
    1.8784   -3.0869    0.8904 H   0  0  0  0  0
    1.8794   -3.0859   -0.8911 H   0  0  0  0  0
    3.2148   -2.3145    0.0128 H   0  0  0  0  0
  1  5  1  0  0  0
  2  4  2  0  0  0
  3  4  2  0  0  0
  4  6  1  0  0  0
  5  7  1  0  0  0
  5  8  2  0  0  0
  6  9  1  0  0  0
  6 10  2  0  0  0
  7  9  2  0  0  0
  7 11  1  0  0  0
  8 10  1  0  0  0
  8 12  1  0  0  0
  9 13  1  0  0  0
 10 14  1  0  0  0
 11 15  1  0  0  0
 11 16  1  0  0  0
 11 17  1  0  0  0
M  END
> <EXTREG>
3-methyl-4-bromonitrobenzene

> <# Confs.>
1

> <LIC50>
1.16

> <Name>
3-methyl-4-bromonitrobenzene

$$$$
2-3-4-trichloronitrobenzene
XX    ILIB04271811163D

 14 14  0  0  1  0              1 V2000
    2.2393   -2.6836    0.0080 Cl  0  0  0  0  0
   -0.8599   -2.6846   -0.0136 Cl  0  0  0  0  0
    3.7891    0.0080    0.0108 Cl  0  0  0  0  0
   -2.6533   -1.0557   -0.0092 O   0  0  0  0  0
   -2.6523    1.0571   -0.0112 O   0  0  0  0  0
   -2.0430    0.0128   -0.0120 N   0  2  0  0  0
    1.3892   -1.2114    0.0080 C   0  0  0  0  0
   -0.0104   -1.2129   -0.0080 C   0  0  0  0  0
    2.0889    0.0096    0.0120 C   0  0  0  0  0
   -0.7102    0.0096   -0.0080 C   0  0  0  0  0
    1.3892    1.2129    0.0120 C   0  0  0  0  0
   -0.0104    1.2129    0.0080 C   0  0  0  0  0
    1.9312    2.1514    0.0092 H   0  0  0  0  0
   -0.5522    2.1514    0.0080 H   0  0  0  0  0
  1  7  1  0  0  0
  2  8  1  0  0  0
  3  9  1  0  0  0
  4  6  2  0  0  0
  5  6  2  0  0  0
  6 10  1  0  0  0
  7  8  2  0  0  0
  7  9  1  0  0  0
  8 10  1  0  0  0
  9 11  2  0  0  0
 10 12  2  0  0  0
 11 12  1  0  0  0
 11 13  1  0  0  0
 12 14  1  0  0  0
M  END
> <EXTREG>
2-3-4-trichloronitrobenzene

> <# Confs.>
1

> <LIC50>
1.51

> <Name>
2-3-4-trichloronitrobenzene

$$$$
2-4-6-trichloronitrobenzene
XX    ILIB04271811163D

 14 14  0  0  1  0              1 V2000
   -0.8599   -2.6846   -0.0136 Cl  0  0  0  0  0
   -0.8604    2.6846    0.0080 Cl  0  0  0  0  0
    3.7891    0.0080    0.0108 Cl  0  0  0  0  0
   -2.6533   -1.0557   -0.0092 O   0  0  0  0  0
   -2.6523    1.0571   -0.0112 O   0  0  0  0  0
   -2.0430    0.0128   -0.0120 N   0  2  0  0  0
   -0.0104   -1.2129   -0.0080 C   0  0  0  0  0
   -0.0104    1.2129    0.0080 C   0  0  0  0  0
    2.0889    0.0096    0.0120 C   0  0  0  0  0
   -0.7102    0.0096   -0.0080 C   0  0  0  0  0
    1.3892   -1.2114    0.0080 C   0  0  0  0  0
    1.3892    1.2129    0.0120 C   0  0  0  0  0
    1.9316   -2.1504    0.0080 H   0  0  0  0  0
    1.9312    2.1514    0.0092 H   0  0  0  0  0
  1  7  1  0  0  0
  2  8  1  0  0  0
  3  9  1  0  0  0
  4  6  2  0  0  0
  5  6  2  0  0  0
  6 10  1  0  0  0
  7 10  1  0  0  0
  7 11  2  0  0  0
  8 10  2  0  0  0
  8 12  1  0  0  0
  9 11  1  0  0  0
  9 12  2  0  0  0
 11 13  1  0  0  0
 12 14  1  0  0  0
M  END
> <EXTREG>
2-4-6-trichloronitrobenzene

> <# Confs.>
1

> <LIC50>
1.43

> <Name>
2-4-6-trichloronitrobenzene

$$$$
4-6-trichloro-1-2-dinitrobenzene
XX    ILIB04271811163D

 16 16  0  0  1  0              1 V2000
   -0.8604    2.6846    0.0080 Cl  0  0  0  0  0
    3.7891    0.0080    0.0108 Cl  0  0  0  0  0
   -2.6533   -1.0557   -0.0092 O   0  0  0  0  0
   -2.6523    1.0571   -0.0112 O   0  0  0  0  0
   -0.0665   -3.4229   -0.0120 O   0  0  0  0  0
   -1.8965   -2.3672   -0.0092 O   0  0  0  0  0
   -2.0430    0.0128   -0.0120 N   0  2  0  0  0
   -0.6765   -2.3672   -0.0120 N   0  2  0  0  0
   -0.0104    1.2129    0.0080 C   0  0  0  0  0
    2.0889    0.0096    0.0120 C   0  0  0  0  0
   -0.7102    0.0096   -0.0080 C   0  0  0  0  0
   -0.0104   -1.2129   -0.0080 C   0  0  0  0  0
    1.3892    1.2129    0.0120 C   0  0  0  0  0
    1.3892   -1.2114    0.0080 C   0  0  0  0  0
    1.9312    2.1514    0.0092 H   0  0  0  0  0
    1.9316   -2.1504    0.0080 H   0  0  0  0  0
  1  9  1  0  0  0
  2 10  1  0  0  0
  3  7  2  0  0  0
  4  7  2  0  0  0
  5  8  2  0  0  0
  6  8  2  0  0  0
  7 11  1  0  0  0
  8 12  1  0  0  0
  9 11  2  0  0  0
  9 13  1  0  0  0
 10 13  2  0  0  0
 10 14  1  0  0  0
 11 12  1  0  0  0
 12 14  2  0  0  0
 13 15  1  0  0  0
 14 16  1  0  0  0
M  END
> <EXTREG>
4-6-trichloro-1-2-dinitrobenzene

> <# Confs.>
1

> <LIC50>
2.42

> <Name>
4-6-trichloro-1-2-dinitrobenzene

$$$$
3-5-dinitrobenzyl_alcohol
XX    ILIB04271811163D

 20 20  0  0  1  0              1 V2000
    1.4468   -3.4219   -0.0128 O   0  0  0  0  0
    3.2764   -2.3652    0.0112 O   0  0  0  0  0
   -2.6533   -1.0557   -0.0092 O   0  0  0  0  0
   -2.6523    1.0571   -0.0112 O   0  0  0  0  0
    1.2153    3.5996    0.0096 O   0  0  0  0  0
    2.0557   -2.3652    0.0080 N   0  2  0  0  0
   -2.0430    0.0128   -0.0120 N   0  2  0  0  0
    1.3892   -1.2114    0.0080 C   0  0  0  0  0
   -0.7102    0.0096   -0.0080 C   0  0  0  0  0
    1.3892    1.2129    0.0120 C   0  0  0  0  0
   -0.0104   -1.2129   -0.0080 C   0  0  0  0  0
    2.0889    0.0096    0.0120 C   0  0  0  0  0
   -0.0104    1.2129    0.0080 C   0  0  0  0  0
    2.1416    2.5156    0.0104 C   0  0  0  0  0
    1.7432    4.4922    0.0124 H   0  0  0  0  0
   -0.5520   -2.1514   -0.0104 H   0  0  0  0  0
    3.1729    0.0080    0.0092 H   0  0  0  0  0
   -0.5522    2.1514    0.0080 H   0  0  0  0  0
    2.7686    2.5732    0.8938 H   0  0  0  0  0
    2.7695    2.5742   -0.8877 H   0  0  0  0  0
  1  6  2  0  0  0
  2  6  2  0  0  0
  3  7  2  0  0  0
  4  7  2  0  0  0
  5 14  1  0  0  0
  5 15  1  0  0  0
  6  8  1  0  0  0
  7  9  1  0  0  0
  8 11  2  0  0  0
  8 12  1  0  0  0
  9 11  1  0  0  0
  9 13  2  0  0  0
 10 12  2  0  0  0
 10 13  1  0  0  0
 10 14  1  0  0  0
 11 16  1  0  0  0
 12 17  1  0  0  0
 13 18  1  0  0  0
 14 19  1  0  0  0
 14 20  1  0  0  0
M  END
> <EXTREG>
3-5-dinitrobenzyl_alcohol

> <# Confs.>
1

> <LIC50>
0.53

> <Name>
3-5-dinitrobenzyl_alcohol

$$$$
3-4-dinitrobenzyl_alcohol
XX    ILIB04271811163D

 20 20  0  0  1  0              1 V2000
   -2.6533   -1.0557   -0.0092 O   0  0  0  0  0
   -2.6523    1.0571   -0.0112 O   0  0  0  0  0
   -0.0665   -3.4229   -0.0120 O   0  0  0  0  0
   -1.8965   -2.3672   -0.0092 O   0  0  0  0  0
    1.2153    3.5996    0.0096 O   0  0  0  0  0
   -2.0430    0.0128   -0.0120 N   0  2  0  0  0
   -0.6765   -2.3672   -0.0120 N   0  2  0  0  0
   -0.7102    0.0096   -0.0080 C   0  0  0  0  0
   -0.0104   -1.2129   -0.0080 C   0  0  0  0  0
    1.3892    1.2129    0.0120 C   0  0  0  0  0
   -0.0104    1.2129    0.0080 C   0  0  0  0  0
    1.3892   -1.2114    0.0080 C   0  0  0  0  0
    2.0889    0.0096    0.0120 C   0  0  0  0  0
    2.1416    2.5156    0.0104 C   0  0  0  0  0
    1.7432    4.4922    0.0124 H   0  0  0  0  0
   -0.5522    2.1514    0.0080 H   0  0  0  0  0
    1.9316   -2.1504    0.0080 H   0  0  0  0  0
    3.1729    0.0080    0.0092 H   0  0  0  0  0
    2.7686    2.5732    0.8938 H   0  0  0  0  0
    2.7695    2.5742   -0.8877 H   0  0  0  0  0
  1  6  2  0  0  0
  2  6  2  0  0  0
  3  7  2  0  0  0
  4  7  2  0  0  0
  5 14  1  0  0  0
  5 15  1  0  0  0
  6  8  1  0  0  0
  7  9  1  0  0  0
  8  9  1  0  0  0
  8 11  2  0  0  0
  9 12  2  0  0  0
 10 11  1  0  0  0
 10 13  2  0  0  0
 10 14  1  0  0  0
 11 16  1  0  0  0
 12 13  1  0  0  0
 12 17  1  0  0  0
 13 18  1  0  0  0
 14 19  1  0  0  0
 14 20  1  0  0  0
M  END
> <EXTREG>
3-4-dinitrobenzyl_alcohol

> <# Confs.>
1

> <LIC50>
1.09

> <Name>
3-4-dinitrobenzyl_alcohol

$$$$
2-4-6-trichloro-1-3-dinitrobenzene
XX    ILIB04271811163D

 16 16  0  0  1  0              1 V2000
   -0.8599   -2.6846   -0.0136 Cl  0  0  0  0  0
   -0.8604    2.6846    0.0080 Cl  0  0  0  0  0
    3.7891    0.0080    0.0108 Cl  0  0  0  0  0
   -2.6533   -1.0557   -0.0092 O   0  0  0  0  0
   -2.6523    1.0571   -0.0112 O   0  0  0  0  0
    1.4468   -3.4219   -0.0128 O   0  0  0  0  0
    3.2764   -2.3652    0.0112 O   0  0  0  0  0
   -2.0430    0.0128   -0.0120 N   0  2  0  0  0
    2.0557   -2.3652    0.0080 N   0  2  0  0  0
   -0.0104   -1.2129   -0.0080 C   0  0  0  0  0
   -0.0104    1.2129    0.0080 C   0  0  0  0  0
    2.0889    0.0096    0.0120 C   0  0  0  0  0
   -0.7102    0.0096   -0.0080 C   0  0  0  0  0
    1.3892   -1.2114    0.0080 C   0  0  0  0  0
    1.3892    1.2129    0.0120 C   0  0  0  0  0
    1.9312    2.1514    0.0092 H   0  0  0  0  0
  1 10  1  0  0  0
  2 11  1  0  0  0
  3 12  1  0  0  0
  4  8  2  0  0  0
  5  8  2  0  0  0
  6  9  2  0  0  0
  7  9  2  0  0  0
  8 13  1  0  0  0
  9 14  1  0  0  0
 10 13  1  0  0  0
 10 14  2  0  0  0
 11 13  2  0  0  0
 11 15  1  0  0  0
 12 14  1  0  0  0
 12 15  2  0  0  0
 15 16  1  0  0  0
M  END
> <EXTREG>
2-4-6-trichloro-1-3-dinitrobenzene

> <# Confs.>
1

> <LIC50>
2.19

> <Name>
2-4-6-trichloro-1-3-dinitrobenzene

$$$$
2-3-5-6-tetrachloro-1-4-dinitrobenzene
XX    ILIB04271811163D

 16 16  0  0  1  0              1 V2000
   -0.8604    2.6846    0.0080 Cl  0  0  0  0  0
   -0.8599   -2.6846   -0.0136 Cl  0  0  0  0  0
    2.2393    2.6846    0.0108 Cl  0  0  0  0  0
    2.2393   -2.6836    0.0080 Cl  0  0  0  0  0
   -2.6533   -1.0557   -0.0092 O   0  0  0  0  0
   -2.6523    1.0571   -0.0112 O   0  0  0  0  0
    4.0312   -1.0557    0.0100 O   0  0  0  0  0
    4.0312    1.0566    0.0132 O   0  0  0  0  0
   -2.0430    0.0128   -0.0120 N   0  2  0  0  0
    3.4219    0.0080    0.0100 N   0  2  0  0  0
   -0.0104    1.2129    0.0080 C   0  0  0  0  0
   -0.0104   -1.2129   -0.0080 C   0  0  0  0  0
    1.3892    1.2129    0.0120 C   0  0  0  0  0
    1.3892   -1.2114    0.0080 C   0  0  0  0  0
   -0.7102    0.0096   -0.0080 C   0  0  0  0  0
    2.0889    0.0096    0.0120 C   0  0  0  0  0
  1 11  1  0  0  0
  2 12  1  0  0  0
  3 13  1  0  0  0
  4 14  1  0  0  0
  5  9  2  0  0  0
  6  9  2  0  0  0
  7 10  2  0  0  0
  8 10  2  0  0  0
  9 15  1  0  0  0
 10 16  1  0  0  0
 11 13  1  0  0  0
 11 15  2  0  0  0
 12 14  2  0  0  0
 12 15  1  0  0  0
 13 16  2  0  0  0
 14 16  1  0  0  0
M  END
> <EXTREG>
2-3-5-6-tetrachloro-1-4-dinitrobenzene

> <# Confs.>
1

> <LIC50>
2.74

> <Name>
2-3-5-6-tetrachloro-1-4-dinitrobenzene

$$$$
2-4-5-trichloro-1-3-dinitrobenzene
XX    ILIB04271811163D

 16 16  0  0  1  0              1 V2000
    3.7891    0.0080    0.0108 Cl  0  0  0  0  0
    2.2393    2.6846    0.0108 Cl  0  0  0  0  0
   -0.8599   -2.6846   -0.0136 Cl  0  0  0  0  0
    1.4468   -3.4219   -0.0128 O   0  0  0  0  0
    3.2764   -2.3652    0.0112 O   0  0  0  0  0
   -2.6533   -1.0557   -0.0092 O   0  0  0  0  0
   -2.6523    1.0571   -0.0112 O   0  0  0  0  0
    2.0557   -2.3652    0.0080 N   0  2  0  0  0
   -2.0430    0.0128   -0.0120 N   0  2  0  0  0
    2.0889    0.0096    0.0120 C   0  0  0  0  0
    1.3892    1.2129    0.0120 C   0  0  0  0  0
   -0.0104   -1.2129   -0.0080 C   0  0  0  0  0
    1.3892   -1.2114    0.0080 C   0  0  0  0  0
   -0.7102    0.0096   -0.0080 C   0  0  0  0  0
   -0.0104    1.2129    0.0080 C   0  0  0  0  0
   -0.5522    2.1514    0.0080 H   0  0  0  0  0
  1 10  1  0  0  0
  2 11  1  0  0  0
  3 12  1  0  0  0
  4  8  2  0  0  0
  5  8  2  0  0  0
  6  9  2  0  0  0
  7  9  2  0  0  0
  8 13  1  0  0  0
  9 14  1  0  0  0
 10 11  2  0  0  0
 10 13  1  0  0  0
 11 15  1  0  0  0
 12 13  2  0  0  0
 12 14  1  0  0  0
 14 15  2  0  0  0
 15 16  1  0  0  0
M  END
> <EXTREG>
2-4-5-trichloro-1-3-dinitrobenzene

> <# Confs.>
1

> <LIC50>
2.59

> <Name>
2-4-5-trichloro-1-3-dinitrobenzene

$$$$
