A1
  Mrv0541 08111511043D          

 20 20  0  0  0  0            999 V2000
    0.0000    0.0000    0.0000 C   0  0  0  0  0  0  0  0  0  0  0  0
    1.3892    0.0000    0.0000 C   0  0  0  0  0  0  0  0  0  0  0  0
    2.0830    0.0000    1.2157 C   0  0  0  0  0  0  0  0  0  0  0  0
    3.4586    0.0000    1.2921 O   0  0  0  0  0  0  0  0  0  0  0  0
   -0.7244    0.0000    1.2159 C   0  0  0  0  0  0  0  0  0  0  0  0
   -0.0047   -0.0001    2.4319 C   0  0  0  0  0  0  0  0  0  0  0  0
    1.3836   -0.0001    2.4317 C   0  0  0  0  0  0  0  0  0  0  0  0
   -2.1285    0.0002    1.1534 N   0  0  0  0  0  0  0  0  0  0  0  0
   -3.0281   -0.0026    2.2104 C   0  0  0  0  0  0  0  0  0  0  0  0
   -4.4924   -0.0022    1.8296 C   0  0  0  0  0  0  0  0  0  0  0  0
   -2.6794   -0.0052    3.4047 O   0  0  0  0  0  0  0  0  0  0  0  0
   -0.5274    0.0000   -0.9664 H   0  0  0  0  0  0  0  0  0  0  0  0
    1.9378    0.0000   -0.9527 H   0  0  0  0  0  0  0  0  0  0  0  0
    3.8048    0.0002    0.3884 H   0  0  0  0  0  0  0  0  0  0  0  0
   -0.5359   -0.0001    3.3991 H   0  0  0  0  0  0  0  0  0  0  0  0
    1.9430   -0.0002    3.3787 H   0  0  0  0  0  0  0  0  0  0  0  0
   -4.7432   -0.9090    1.2286 H   0  0  0  0  0  0  0  0  0  0  0  0
   -5.1015   -0.0083    2.7665 H   0  0  0  0  0  0  0  0  0  0  0  0
   -4.7448    0.9114    1.2395 H   0  0  0  0  0  0  0  0  0  0  0  0
   -2.5135    0.0017    0.2355 H   0  0  0  0  0  0  0  0  0  0  0  0
  1  2  2  0  0  0  0
  1  5  1  0  0  0  0
  2  3  1  0  0  0  0
  3  4  1  0  0  0  0
  3  7  2  0  0  0  0
  5  6  2  0  0  0  0
  6 15  1  0  0  0  0
  7  6  1  0  0  0  0
  7 16  1  0  0  0  0
  8  5  1  0  0  0  0
  8  9  1  0  0  0  0
  9 11  2  0  0  0  0
 10  9  1  0  0  0  0
 10 18  1  0  0  0  0
 12  1  1  0  0  0  0
 13  2  1  0  0  0  0
 14  4  1  0  0  0  0
 17 10  1  0  0  0  0
 19 10  1  0  0  0  0
 20  8  1  0  0  0  0
M  END