A10
  Mrv0541 08111511043D          

 30 31  0  0  0  0            999 V2000
    0.0000    0.0000    0.0000 Cl  0  0  0  0  0  0  0  0  0  0  0  0
    1.6991    0.0000    0.0000 C   0  0  0  0  0  0  0  0  0  0  0  0
    2.4251    0.0000    1.2173 C   0  0  0  0  0  0  0  0  0  0  0  0
    1.7575   -0.0726    2.4571 N   0  0  2  0  0  0  0  0  0  0  0  0
    1.0218    1.0310    2.9337 C   0  0  0  0  0  0  0  0  0  0  0  0
    0.2237    0.8824    4.0995 C   0  0  0  0  0  0  0  0  0  0  0  0
    0.1224   -0.4153    4.8222 C   0  0  2  0  0  0  0  0  0  0  0  0
    1.3422   -0.6994    5.6457 C   0  0  0  0  0  0  0  0  0  0  0  0
    1.1118   -0.7307    6.9875 O   0  0  0  0  0  0  0  0  0  0  0  0
    2.4998   -0.9312    5.2800 O   0  0  0  0  0  0  0  0  0  0  0  0
   -0.5255    1.9679    4.5636 C   0  0  0  0  0  0  0  0  0  0  0  0
   -0.5148    3.1890    3.8980 C   0  0  0  0  0  0  0  0  0  0  0  0
    1.0215    2.2796    2.2707 C   0  0  0  0  0  0  0  0  0  0  0  0
    0.2582    3.3374    2.7470 C   0  0  0  0  0  0  0  0  0  0  0  0
    3.8407   -0.0273    1.1289 C   0  0  0  0  0  0  0  0  0  0  0  0
    4.7848   -0.0354    2.5426 Cl  0  0  0  0  0  0  0  0  0  0  0  0
    4.4899   -0.0556   -0.1060 C   0  0  0  0  0  0  0  0  0  0  0  0
    2.3580   -0.0119   -1.2314 C   0  0  0  0  0  0  0  0  0  0  0  0
    3.7484   -0.0415   -1.2840 C   0  0  0  0  0  0  0  0  0  0  0  0
    1.9392   -0.9233    7.4591 H   0  0  0  0  0  0  0  0  0  0  0  0
    0.0009   -1.2644    4.0933 H   0  0  0  0  0  0  0  0  0  0  0  0
   -0.7774   -0.4130    5.4970 H   0  0  0  0  0  0  0  0  0  0  0  0
   -1.1123    4.0300    4.2771 H   0  0  0  0  0  0  0  0  0  0  0  0
   -1.1377    1.8490    5.4718 H   0  0  0  0  0  0  0  0  0  0  0  0
    0.2712    4.2997    2.2130 H   0  0  0  0  0  0  0  0  0  0  0  0
    1.6294    2.4168    1.3627 H   0  0  0  0  0  0  0  0  0  0  0  0
    2.2810   -0.5473    3.1741 H   0  0  0  0  0  0  0  0  0  0  0  0
    5.5902   -0.0836   -0.1467 H   0  0  0  0  0  0  0  0  0  0  0  0
    4.2616   -0.0567   -2.2569 H   0  0  0  0  0  0  0  0  0  0  0  0
    1.7720   -0.0066   -2.1642 H   0  0  0  0  0  0  0  0  0  0  0  0
  1  2  1  0  0  0  0
  2  3  1  0  0  0  0
  3  4  1  0  0  0  0
  4  5  1  0  0  0  0
  4 27  1  0  0  0  0
  5  6  1  0  0  0  0
  6 11  2  0  0  0  0
  6  7  1  0  0  0  0
  7 22  1  0  0  0  0
  7  8  1  0  0  0  0
  8  9  1  0  0  0  0
  9 20  1  0  0  0  0
 10  8  2  0  0  0  0
 11 24  1  0  0  0  0
 12 11  1  0  0  0  0
 12 23  1  0  0  0  0
 13  5  2  0  0  0  0
 13 14  1  0  0  0  0
 14 12  2  0  0  0  0
 15  3  2  0  0  0  0
 15 16  1  0  0  0  0
 17 15  1  0  0  0  0
 18  2  2  0  0  0  0
 19 17  2  0  0  0  0
 19 18  1  0  0  0  0
 21  7  1  0  0  0  0
 25 14  1  0  0  0  0
 26 13  1  0  0  0  0
 28 17  1  0  0  0  0
 29 19  1  0  0  0  0
 30 18  1  0  0  0  0
M  END