A13
  Mrv0541 08111511043D          

 46 49  0  0  0  0            999 V2000
    0.0000    0.0000    0.0000 O   0  0  0  0  0  0  0  0  0  0  0  0
   10.7672    0.0000    0.0000 O   0  0  0  0  0  0  0  0  0  0  0  0
    2.3602    0.0000   -0.5634 C   0  0  1  0  0  0  0  0  0  0  0  0
    3.1175    0.7342   -1.6933 C   0  0  2  0  0  0  0  0  0  0  0  0
    4.5676    0.9490   -1.3212 C   0  0  1  0  0  0  0  0  0  0  0  0
    0.8939    0.0607   -1.1065 C   0  0  2  0  0  0  0  0  0  0  0  0
    5.2258   -0.4312   -1.1488 C   0  0  2  0  0  0  0  0  0  0  0  0
    2.9738   -1.3805   -0.4136 C   0  0  2  0  0  0  0  0  0  0  0  0
    2.2454    1.9398   -2.0164 C   0  0  2  0  0  0  0  0  0  0  0  0
    4.4680   -1.2916   -0.1425 C   0  0  2  0  0  0  0  0  0  0  0  0
    0.8116    1.4552   -1.7996 C   0  0  2  0  0  0  0  0  0  0  0  0
    5.3212    1.7259   -2.3850 C   0  0  2  0  0  0  0  0  0  0  0  0
    2.3976    0.7335    0.7689 C   0  0  0  0  0  0  0  0  0  0  0  0
    6.6785   -0.2762   -0.8189 C   0  0  0  0  0  0  0  0  0  0  0  0
    6.7315    2.0159   -1.9198 C   0  0  2  0  0  0  0  0  0  0  0  0
    7.3840    0.8697   -1.2258 C   0  0  0  0  0  0  0  0  0  0  0  0
    0.6051   -0.9965   -2.0571 C   0  0  0  0  0  0  0  0  0  0  0  0
    7.3713   -1.2962   -0.1511 C   0  0  0  0  0  0  0  0  0  0  0  0
    8.7545    0.9804   -0.9602 C   0  0  0  0  0  0  0  0  0  0  0  0
    8.7299   -1.1986    0.1208 C   0  0  0  0  0  0  0  0  0  0  0  0
    9.4220   -0.0488   -0.2902 C   0  0  0  0  0  0  0  0  0  0  0  0
    0.3595   -1.8626   -2.8451 C   0  0  0  0  0  0  0  0  0  0  0  0
    3.1004    0.0632   -2.6031 H   0  0  0  0  0  0  0  0  0  0  0  0
    4.6338    1.5166   -0.3527 H   0  0  0  0  0  0  0  0  0  0  0  0
    5.1731   -0.9587   -2.1485 H   0  0  0  0  0  0  0  0  0  0  0  0
    2.7987   -1.9739   -1.3497 H   0  0  0  0  0  0  0  0  0  0  0  0
    2.4776   -1.9253    0.4312 H   0  0  0  0  0  0  0  0  0  0  0  0
    2.4030    2.2818   -3.0683 H   0  0  0  0  0  0  0  0  0  0  0  0
    2.4827    2.7972   -1.3388 H   0  0  0  0  0  0  0  0  0  0  0  0
    4.6441   -0.8939    0.8907 H   0  0  0  0  0  0  0  0  0  0  0  0
    4.8758   -2.3373   -0.1736 H   0  0  0  0  0  0  0  0  0  0  0  0
    0.2521    2.1567   -1.1326 H   0  0  0  0  0  0  0  0  0  0  0  0
    0.2637    1.3807   -2.7691 H   0  0  0  0  0  0  0  0  0  0  0  0
    4.7895    2.6901   -2.5976 H   0  0  0  0  0  0  0  0  0  0  0  0
    5.3437    1.1378   -3.3395 H   0  0  0  0  0  0  0  0  0  0  0  0
    3.4385    0.8086    1.1619 H   0  0  0  0  0  0  0  0  0  0  0  0
    1.9790    1.7624    0.6565 H   0  0  0  0  0  0  0  0  0  0  0  0
    1.7759    0.1809    1.5159 H   0  0  0  0  0  0  0  0  0  0  0  0
    6.7150    2.8877   -1.2085 H   0  0  0  0  0  0  0  0  0  0  0  0
    7.3568    2.3222   -2.8016 H   0  0  0  0  0  0  0  0  0  0  0  0
   -0.8946    0.0168   -0.3614 H   0  0  0  0  0  0  0  0  0  0  0  0
    6.8400   -2.2048    0.1715 H   0  0  0  0  0  0  0  0  0  0  0  0
    9.3022    1.8786   -1.2799 H   0  0  0  0  0  0  0  0  0  0  0  0
    9.2673   -1.9998    0.6462 H   0  0  0  0  0  0  0  0  0  0  0  0
    0.1435   -2.6313   -3.5430 H   0  0  0  0  0  0  0  0  0  0  0  0
   11.1130    0.8394   -0.3357 H   0  0  0  0  0  0  0  0  0  0  0  0
  3  8  1  0  0  0  0
  3 13  1  1  0  0  0
  4  3  1  0  0  0  0
  4 23  1  6  0  0  0
  4  5  1  0  0  0  0
  5  7  1  0  0  0  0
  5 24  1  1  0  0  0
  6  1  1  1  0  0  0
  6  3  1  0  0  0  0
  7 25  1  6  0  0  0
  7 14  1  0  0  0  0
  7 10  1  0  0  0  0
  8 10  1  0  0  0  0
  8 27  1  0  0  0  0
  9  4  1  0  0  0  0
  9 11  1  0  0  0  0
  9 29  1  0  0  0  0
 10 30  1  0  0  0  0
 11  6  1  0  0  0  0
 11 32  1  0  0  0  0
 12  5  1  0  0  0  0
 12 15  1  0  0  0  0
 13 36  1  0  0  0  0
 13 38  1  0  0  0  0
 14 18  1  0  0  0  0
 15 16  1  0  0  0  0
 15 39  1  0  0  0  0
 16 14  2  0  0  0  0
 16 19  1  0  0  0  0
 17  6  1  0  0  0  0
 18 20  2  0  0  0  0
 18 42  1  0  0  0  0
 19 21  2  0  0  0  0
 20 44  1  0  0  0  0
 21  2  1  0  0  0  0
 21 20  1  0  0  0  0
 22 17  3  0  0  0  0
 26  8  1  0  0  0  0
 28  9  1  0  0  0  0
 31 10  1  0  0  0  0
 33 11  1  0  0  0  0
 34 12  1  0  0  0  0
 35 12  1  0  0  0  0
 37 13  1  0  0  0  0
 40 15  1  0  0  0  0
 41  1  1  0  0  0  0
 43 19  1  0  0  0  0
 45 22  1  0  0  0  0
 46  2  1  0  0  0  0
M  END