A14
  Mrv0541 08111511043D          

 31 33  0  0  0  0            999 V2000
    0.0000    0.0000    0.0000 N   0  0  0  0  0  0  0  0  0  0  0  0
    1.4059    0.0000    0.0000 C   0  0  0  0  0  0  0  0  0  0  0  0
    2.1067    0.0000    1.2314 C   0  0  0  0  0  0  0  0  0  0  0  0
    1.3914   -0.0179    2.5301 C   0  0  0  0  0  0  0  0  0  0  0  0
   -0.0666   -0.0422    2.4184 C   0  0  0  0  0  0  0  0  0  0  0  0
   -0.6799   -0.0402    1.1873 C   0  0  0  0  0  0  0  0  0  0  0  0
    2.1382    0.0129   -1.2180 C   0  0  0  0  0  0  0  0  0  0  0  0
    3.5259    0.0288   -1.1926 C   0  0  0  0  0  0  0  0  0  0  0  0
    4.2165    0.0291    0.0359 C   0  0  0  0  0  0  0  0  0  0  0  0
    3.5056    0.0145    1.2410 C   0  0  0  0  0  0  0  0  0  0  0  0
    1.4287   -0.0103   -2.5251 C   0  0  2  0  0  0  0  0  0  0  0  0
    0.0358    0.5684   -2.4185 C   0  0  2  0  0  0  0  0  0  0  0  0
   -0.7513   -0.0467   -1.2554 C   0  0  1  0  0  0  0  0  0  0  0  0
   -1.2160   -1.4584   -1.6162 C   0  0  0  0  0  0  0  0  0  0  0  0
   -0.8806   -0.0678    3.6280 C   0  0  0  0  0  0  0  0  0  0  0  0
   -0.5568   -0.0669    4.8170 O   0  0  0  0  0  0  0  0  0  0  0  0
   -2.2370   -0.0988    3.3901 O   0  0  0  0  0  0  0  0  0  0  0  0
    2.0085   -0.0134    3.6028 O   0  0  0  0  0  0  0  0  0  0  0  0
    5.5713    0.0439    0.0416 F   0  0  0  0  0  0  0  0  0  0  0  0
   -0.5311    0.3777   -3.3663 H   0  0  0  0  0  0  0  0  0  0  0  0
    0.0993    1.6794   -2.2760 H   0  0  0  0  0  0  0  0  0  0  0  0
   -1.6774    0.5896   -1.0980 H   0  0  0  0  0  0  0  0  0  0  0  0
   -1.8182   -1.9020   -0.7869 H   0  0  0  0  0  0  0  0  0  0  0  0
   -1.8543   -1.4036   -2.5306 H   0  0  0  0  0  0  0  0  0  0  0  0
   -0.3479   -2.1284   -1.8241 H   0  0  0  0  0  0  0  0  0  0  0  0
    1.3725   -1.0744   -2.8864 H   0  0  0  0  0  0  0  0  0  0  0  0
    2.0128    0.5686   -3.2902 H   0  0  0  0  0  0  0  0  0  0  0  0
    4.0980    0.0416   -2.1332 H   0  0  0  0  0  0  0  0  0  0  0  0
    4.0362    0.0147    2.2091 H   0  0  0  0  0  0  0  0  0  0  0  0
   -2.7056   -0.1135    4.2396 H   0  0  0  0  0  0  0  0  0  0  0  0
   -1.7888   -0.0633    1.1105 H   0  0  0  0  0  0  0  0  0  0  0  0
  1  6  1  0  0  0  0
  2  1  1  0  0  0  0
  2  3  1  0  0  0  0
  3 10  2  0  0  0  0
  3  4  1  0  0  0  0
  4 18  2  0  0  0  0
  5  4  1  0  0  0  0
  5 15  1  0  0  0  0
  6  5  2  0  0  0  0
  7  2  2  0  0  0  0
  7  8  1  0  0  0  0
  8  9  2  0  0  0  0
  9 19  1  0  0  0  0
  9 10  1  0  0  0  0
 10 29  1  0  0  0  0
 11  7  1  0  0  0  0
 11 12  1  0  0  0  0
 12 21  1  0  0  0  0
 12 13  1  0  0  0  0
 13  1  1  0  0  0  0
 13 22  1  1  0  0  0
 14 13  1  0  0  0  0
 14 23  1  0  0  0  0
 15 16  2  0  0  0  0
 17 15  1  0  0  0  0
 17 30  1  0  0  0  0
 20 12  1  0  0  0  0
 24 14  1  0  0  0  0
 25 14  1  0  0  0  0
 26 11  1  0  0  0  0
 27 11  1  0  0  0  0
 28  8  1  0  0  0  0
 31  6  1  0  0  0  0
M  END