A15
  Mrv0541 08111511043D          

 32 33  0  0  0  0            999 V2000
    0.0000    0.0000    0.0000 Cl  0  0  0  0  0  0  0  0  0  0  0  0
    1.6989    0.0000    0.0000 C   0  0  0  0  0  0  0  0  0  0  0  0
    2.4091    0.0000    1.2238 C   0  0  0  0  0  0  0  0  0  0  0  0
    1.5779    0.0067    2.7127 S   0  0  1  0  0  0  0  0  0  0  0  0
    0.8573    1.2124    2.8158 O   0  0  0  0  0  0  0  0  0  0  0  0
    0.8547   -1.1963    2.8262 O   0  0  0  0  0  0  0  0  0  0  0  0
    2.7321    0.0104    3.8255 N   0  0  0  0  0  0  0  0  0  0  0  0
    3.7989   -0.0067    1.1234 C   0  0  0  0  0  0  0  0  0  0  0  0
    2.3317   -0.0016   -1.2280 C   0  0  0  0  0  0  0  0  0  0  0  0
    3.7570   -0.0004   -1.3245 C   0  0  0  0  0  0  0  0  0  0  0  0
    4.3814    0.0224   -2.5353 N   0  0  0  0  0  0  0  0  0  0  0  0
    3.6535   -0.0045   -3.7804 C   0  0  2  0  0  0  0  0  0  0  0  0
    4.5381    0.0572   -4.9667 C   0  0  0  0  0  0  0  0  0  0  0  0
    5.4568   -0.9906   -5.1206 O   0  0  0  0  0  0  0  0  0  0  0  0
    6.1383   -0.7422   -6.3097 C   0  0  0  0  0  0  0  0  0  0  0  0
    4.6414    0.9374   -6.0263 C   0  0  0  0  0  0  0  0  0  0  0  0
    5.6728    0.4179   -6.8965 C   0  0  0  0  0  0  0  0  0  0  0  0
    4.4882   -0.0087   -0.0927 C   0  0  0  0  0  0  0  0  0  0  0  0
    5.9485   -0.0197   -0.0741 C   0  0  0  0  0  0  0  0  0  0  0  0
    6.5134   -0.0239    1.1724 O   0  0  0  0  0  0  0  0  0  0  0  0
    6.7583   -0.0267   -1.0140 O   0  0  0  0  0  0  0  0  0  0  0  0
    3.0975    0.8359    4.2290 H   0  0  0  0  0  0  0  0  0  0  0  0
    3.0943   -0.8122    4.2376 H   0  0  0  0  0  0  0  0  0  0  0  0
    4.4224   -0.0111    2.0389 H   0  0  0  0  0  0  0  0  0  0  0  0
    6.8958   -1.4821   -6.5538 H   0  0  0  0  0  0  0  0  0  0  0  0
    6.0038    0.8711   -7.8266 H   0  0  0  0  0  0  0  0  0  0  0  0
    4.0693    1.8465   -6.1911 H   0  0  0  0  0  0  0  0  0  0  0  0
    2.9488    0.8788   -3.8249 H   0  0  0  0  0  0  0  0  0  0  0  0
    3.0373   -0.9529   -3.8362 H   0  0  0  0  0  0  0  0  0  0  0  0
    5.3803   -0.0313   -2.5803 H   0  0  0  0  0  0  0  0  0  0  0  0
    7.4812   -0.0320    1.0816 H   0  0  0  0  0  0  0  0  0  0  0  0
    1.7228   -0.0055   -2.1462 H   0  0  0  0  0  0  0  0  0  0  0  0
  1  2  1  0  0  0  0
  2  3  1  0  0  0  0
  3  4  1  0  0  0  0
  4  5  2  0  0  0  0
  4  6  2  0  0  0  0
  4  7  1  0  0  0  0
  7 22  1  0  0  0  0
  7 23  1  0  0  0  0
  8  3  2  0  0  0  0
  8 24  1  0  0  0  0
  9  2  2  0  0  0  0
 10  9  1  0  0  0  0
 10 18  2  0  0  0  0
 11 10  1  0  0  0  0
 12 11  1  0  0  0  0
 13 12  1  0  0  0  0
 14 13  1  0  0  0  0
 15 14  1  0  0  0  0
 16 13  2  0  0  0  0
 17 15  2  0  0  0  0
 17 16  1  0  0  0  0
 18  8  1  0  0  0  0
 18 19  1  0  0  0  0
 19 20  1  0  0  0  0
 21 19  2  0  0  0  0
 25 15  1  0  0  0  0
 26 17  1  0  0  0  0
 27 16  1  0  0  0  0
 28 12  1  0  0  0  0
 29 12  1  0  0  0  0
 30 11  1  0  0  0  0
 31 20  1  0  0  0  0
 32  9  1  0  0  0  0
M  END