A16
  Mrv0541 08111511043D          

 40 40  0  0  0  0            999 V2000
    0.0000    0.0000    0.0000 C   0  0  0  0  0  0  0  0  0  0  0  0
    1.3947    0.0000    0.0000 C   0  0  0  0  0  0  0  0  0  0  0  0
    2.1155    0.0000    1.1934 C   0  0  0  0  0  0  0  0  0  0  0  0
    3.5942   -0.0006    1.2063 C   0  0  0  0  0  0  0  0  0  0  0  0
   -0.7055   -0.0007    1.2050 C   0  0  0  0  0  0  0  0  0  0  0  0
   -0.0043   -0.0002    2.4177 C   0  0  0  0  0  0  0  0  0  0  0  0
    1.3928   -0.0001    2.4098 C   0  0  0  0  0  0  0  0  0  0  0  0
    2.1775   -0.0039    3.5482 O   0  0  0  0  0  0  0  0  0  0  0  0
    1.4732    0.0355    4.7946 C   0  0  2  0  0  0  0  0  0  0  0  0
    2.5452    0.0584    5.8717 C   0  0  2  0  0  0  0  0  0  0  0  0
    1.9041   -0.0129    7.2398 C   0  0  1  0  0  0  0  0  0  0  0  0
    2.8971    0.2291    8.3792 C   0  0  2  0  0  0  0  0  0  0  0  0
    3.4272    1.6431    8.2818 C   0  0  0  0  0  0  0  0  0  0  0  0
    2.4820    2.6141    8.4456 O   0  0  0  0  0  0  0  0  0  0  0  0
    4.5798    2.0329    8.0779 O   0  0  0  0  0  0  0  0  0  0  0  0
    4.0631   -0.7452    8.3087 C   0  0  0  0  0  0  0  0  0  0  0  0
    2.1733    0.0675    9.7111 C   0  0  0  0  0  0  0  0  0  0  0  0
   -2.1868   -0.0130    1.2155 C   0  0  0  0  0  0  0  0  0  0  0  0
   -0.5453    0.0013   -0.9550 H   0  0  0  0  0  0  0  0  0  0  0  0
    1.9383    0.0010   -0.9574 H   0  0  0  0  0  0  0  0  0  0  0  0
    3.9717   -0.9265    1.7091 H   0  0  0  0  0  0  0  0  0  0  0  0
    4.0107    0.0425    0.1709 H   0  0  0  0  0  0  0  0  0  0  0  0
    3.9727    0.8791    1.7855 H   0  0  0  0  0  0  0  0  0  0  0  0
   -0.5677    0.0006    3.3608 H   0  0  0  0  0  0  0  0  0  0  0  0
    3.1548    0.9952    5.7740 H   0  0  0  0  0  0  0  0  0  0  0  0
    3.2412   -0.8078    5.7190 H   0  0  0  0  0  0  0  0  0  0  0  0
    1.0863    0.7533    7.3161 H   0  0  0  0  0  0  0  0  0  0  0  0
    1.4402   -1.0240    7.3853 H   0  0  0  0  0  0  0  0  0  0  0  0
    2.8994    3.4881    8.3686 H   0  0  0  0  0  0  0  0  0  0  0  0
    4.7008   -0.6485    9.2202 H   0  0  0  0  0  0  0  0  0  0  0  0
    3.6777   -1.7902    8.2427 H   0  0  0  0  0  0  0  0  0  0  0  0
    4.6976   -0.5298    7.4149 H   0  0  0  0  0  0  0  0  0  0  0  0
    1.7810   -0.9733    9.8020 H   0  0  0  0  0  0  0  0  0  0  0  0
    2.8734    0.2618   10.5585 H   0  0  0  0  0  0  0  0  0  0  0  0
    1.3215    0.7867    9.7767 H   0  0  0  0  0  0  0  0  0  0  0  0
    0.8270   -0.8766    4.8892 H   0  0  0  0  0  0  0  0  0  0  0  0
    0.8351    0.9568    4.8398 H   0  0  0  0  0  0  0  0  0  0  0  0
   -2.6002    0.2775    0.2187 H   0  0  0  0  0  0  0  0  0  0  0  0
   -2.5584   -1.0390    1.4643 H   0  0  0  0  0  0  0  0  0  0  0  0
   -2.5829    0.6972    1.9830 H   0  0  0  0  0  0  0  0  0  0  0  0
  1  2  2  0  0  0  0
  1  5  1  0  0  0  0
  2  3  1  0  0  0  0
  3  4  1  0  0  0  0
  3  7  2  0  0  0  0
  4 21  1  0  0  0  0
  4 23  1  0  0  0  0
  5 18  1  0  0  0  0
  5  6  2  0  0  0  0
  6 24  1  0  0  0  0
  7  6  1  0  0  0  0
  7  8  1  0  0  0  0
  8  9  1  0  0  0  0
  9 37  1  0  0  0  0
  9 36  1  0  0  0  0
  9 10  1  0  0  0  0
 10 11  1  0  0  0  0
 11 27  1  0  0  0  0
 11 28  1  0  0  0  0
 11 12  1  0  0  0  0
 12 17  1  0  0  0  0
 13 12  1  0  0  0  0
 13 14  1  0  0  0  0
 15 13  2  0  0  0  0
 16 12  1  0  0  0  0
 16 30  1  0  0  0  0
 17 35  1  0  0  0  0
 17 33  1  0  0  0  0
 17 34  1  0  0  0  0
 18 39  1  0  0  0  0
 18 40  1  0  0  0  0
 19  1  1  0  0  0  0
 20  2  1  0  0  0  0
 22  4  1  0  0  0  0
 25 10  1  0  0  0  0
 26 10  1  0  0  0  0
 29 14  1  0  0  0  0
 31 16  1  0  0  0  0
 32 16  1  0  0  0  0
 38 18  1  0  0  0  0
M  END