A17
  Mrv0541 08111511043D          

 25 26  0  0  0  0            999 V2000
    0.0000    0.0000    0.0000 C   0  0  0  0  0  0  0  0  0  0  0  0
    1.4232    0.0000    0.0000 C   0  0  0  0  0  0  0  0  0  0  0  0
    2.1069    0.0000    1.2485 C   0  0  0  0  0  0  0  0  0  0  0  0
    1.3457   -0.0047    2.4214 C   0  0  0  0  0  0  0  0  0  0  0  0
    3.7848    0.0167    1.3952 S   0  0  2  0  0  0  0  0  0  0  0  0
    4.2520   -1.2863    1.6056 O   0  0  0  0  0  0  0  0  0  0  0  0
    4.1711    0.9618    2.3622 O   0  0  0  0  0  0  0  0  0  0  0  0
    2.1091   -0.0066   -1.1882 N   0  0  0  0  0  0  0  0  0  0  0  0
    3.5671    0.0009   -1.2498 C   0  0  1  0  0  0  0  0  0  0  0  0
    4.2030    0.5533   -0.0871 N   0  0  0  0  0  0  0  0  0  0  0  0
   -0.6963   -0.0119    1.1950 C   0  0  0  0  0  0  0  0  0  0  0  0
   -0.0446   -0.0138    2.4527 C   0  0  0  0  0  0  0  0  0  0  0  0
   -0.9532   -0.0182    3.9049 S   0  0  2  0  0  0  0  0  0  0  0  0
    0.1454   -0.0395    5.0684 N   0  0  0  0  0  0  0  0  0  0  0  0
   -1.6911   -1.2152    3.9605 O   0  0  0  0  0  0  0  0  0  0  0  0
   -1.6667    1.1928    3.9764 O   0  0  0  0  0  0  0  0  0  0  0  0
   -2.3911   -0.0177    1.1103 Cl  0  0  0  0  0  0  0  0  0  0  0  0
   -0.5482    0.0039   -0.9557 H   0  0  0  0  0  0  0  0  0  0  0  0
    1.9215    0.0126    3.3694 H   0  0  0  0  0  0  0  0  0  0  0  0
    3.9018   -1.0809   -1.3651 H   0  0  0  0  0  0  0  0  0  0  0  0
    3.8747    0.5748   -2.1748 H   0  0  0  0  0  0  0  0  0  0  0  0
    4.7358    1.3741   -0.2381 H   0  0  0  0  0  0  0  0  0  0  0  0
    1.6104    0.1101   -2.0378 H   0  0  0  0  0  0  0  0  0  0  0  0
    0.5102    0.7771    5.4915 H   0  0  0  0  0  0  0  0  0  0  0  0
    0.4709   -0.8705    5.4956 H   0  0  0  0  0  0  0  0  0  0  0  0
  1 11  1  0  0  0  0
  2  1  2  0  0  0  0
  2  3  1  0  0  0  0
  3  5  1  0  0  0  0
  3  4  2  0  0  0  0
  4 12  1  0  0  0  0
  4 19  1  0  0  0  0
  5  6  2  0  0  0  0
  5  7  2  0  0  0  0
  8  2  1  0  0  0  0
  9  8  1  0  0  0  0
  9 10  1  0  0  0  0
 10  5  1  0  0  0  0
 11 12  2  0  0  0  0
 12 13  1  0  0  0  0
 13 15  2  0  0  0  0
 13 16  2  0  0  0  0
 13 14  1  0  0  0  0
 14 24  1  0  0  0  0
 14 25  1  0  0  0  0
 17 11  1  0  0  0  0
 18  1  1  0  0  0  0
 20  9  1  0  0  0  0
 21  9  1  0  0  0  0
 22 10  1  0  0  0  0
 23  8  1  0  0  0  0
M  END