A19
  Mrv0541 08111511043D          

 33 34  0  0  0  0            999 V2000
    0.0000    0.0000    0.0000 C   0  0  0  0  0  0  0  0  0  0  0  0
    1.3998    0.0000    0.0000 C   0  0  0  0  0  0  0  0  0  0  0  0
    2.0983    0.0000    1.2061 C   0  0  0  0  0  0  0  0  0  0  0  0
    1.4052   -0.0067    2.4170 C   0  0  0  0  0  0  0  0  0  0  0  0
    0.0103   -0.0035    2.4222 C   0  0  0  0  0  0  0  0  0  0  0  0
   -0.6923    0.0074    1.2188 C   0  0  0  0  0  0  0  0  0  0  0  0
   -0.7718    0.0288   -1.2615 C   0  0  0  0  0  0  0  0  0  0  0  0
   -0.1925   -0.6466   -2.4461 C   0  0  0  0  0  0  0  0  0  0  0  0
   -0.4619   -0.1281   -3.7202 C   0  0  0  0  0  0  0  0  0  0  0  0
    0.0518   -0.7578   -4.8515 C   0  0  0  0  0  0  0  0  0  0  0  0
    0.8229   -1.9122   -4.7227 C   0  0  0  0  0  0  0  0  0  0  0  0
    1.0884   -2.4419   -3.4548 C   0  0  0  0  0  0  0  0  0  0  0  0
    0.5791   -1.8052   -2.3173 C   0  0  0  0  0  0  0  0  0  0  0  0
    1.9321   -3.6718   -3.3276 C   0  0  2  0  0  0  0  0  0  0  0  0
    1.2310   -4.7075   -2.4847 C   0  0  0  0  0  0  0  0  0  0  0  0
    0.9926   -4.7069   -1.2743 O   0  0  0  0  0  0  0  0  0  0  0  0
    0.8307   -5.8039   -3.1879 O   0  0  0  0  0  0  0  0  0  0  0  0
    3.2813   -3.3541   -2.7071 C   0  0  0  0  0  0  0  0  0  0  0  0
   -1.8685    0.6013   -1.3303 O   0  0  0  0  0  0  0  0  0  0  0  0
   -1.7939    0.0270    1.2123 H   0  0  0  0  0  0  0  0  0  0  0  0
   -0.5375   -0.0058    3.3761 H   0  0  0  0  0  0  0  0  0  0  0  0
    1.9593   -0.0127    3.3675 H   0  0  0  0  0  0  0  0  0  0  0  0
    3.1981    0.0042    1.2015 H   0  0  0  0  0  0  0  0  0  0  0  0
    1.9482    0.0053   -0.9548 H   0  0  0  0  0  0  0  0  0  0  0  0
   -1.0899    0.7725   -3.8143 H   0  0  0  0  0  0  0  0  0  0  0  0
   -0.1580   -0.3476   -5.8506 H   0  0  0  0  0  0  0  0  0  0  0  0
    1.2186   -2.4090   -5.6218 H   0  0  0  0  0  0  0  0  0  0  0  0
    0.7753   -2.2361   -1.3192 H   0  0  0  0  0  0  0  0  0  0  0  0
    2.0963   -4.1170   -4.3526 H   0  0  0  0  0  0  0  0  0  0  0  0
    0.3822   -6.4285   -2.5940 H   0  0  0  0  0  0  0  0  0  0  0  0
    3.9185   -4.2704   -2.6807 H   0  0  0  0  0  0  0  0  0  0  0  0
    3.7994   -2.5718   -3.3113 H   0  0  0  0  0  0  0  0  0  0  0  0
    3.1493   -2.9784   -1.6632 H   0  0  0  0  0  0  0  0  0  0  0  0
  1  6  1  0  0  0  0
  2  1  2  0  0  0  0
  2  3  1  0  0  0  0
  3  4  2  0  0  0  0
  4  5  1  0  0  0  0
  4 22  1  0  0  0  0
  5 21  1  0  0  0  0
  6  5  2  0  0  0  0
  7  1  1  0  0  0  0
  8  7  1  0  0  0  0
  8 13  1  0  0  0  0
  9  8  2  0  0  0  0
 10  9  1  0  0  0  0
 10 11  2  0  0  0  0
 11 12  1  0  0  0  0
 12 14  1  0  0  0  0
 12 13  2  0  0  0  0
 13 28  1  0  0  0  0
 14 29  1  6  0  0  0
 14 18  1  0  0  0  0
 14 15  1  0  0  0  0
 15 16  2  0  0  0  0
 17 15  1  0  0  0  0
 17 30  1  0  0  0  0
 18 31  1  0  0  0  0
 18 33  1  0  0  0  0
 19  7  2  0  0  0  0
 20  6  1  0  0  0  0
 23  3  1  0  0  0  0
 24  2  1  0  0  0  0
 25  9  1  0  0  0  0
 26 10  1  0  0  0  0
 27 11  1  0  0  0  0
 32 18  1  0  0  0  0
M  END