A2
  Mrv0541 08111511043D          

 21 21  0  0  0  0            999 V2000
    0.0000    0.0000    0.0000 C   0  0  0  0  0  0  0  0  0  0  0  0
    1.3963    0.0000    0.0000 C   0  0  0  0  0  0  0  0  0  0  0  0
    2.0994    0.0000    1.2013 C   0  0  0  0  0  0  0  0  0  0  0  0
    1.3951    0.0072    2.4157 C   0  0  0  0  0  0  0  0  0  0  0  0
    2.1122   -0.1748    3.5881 O   0  0  0  0  0  0  0  0  0  0  0  0
    2.5770    0.9459    4.2747 C   0  0  0  0  0  0  0  0  0  0  0  0
    2.1302    2.3030    3.8754 C   0  0  0  0  0  0  0  0  0  0  0  0
    3.3264    0.6176    5.1892 O   0  0  0  0  0  0  0  0  0  0  0  0
   -0.6997    0.0071    1.2037 C   0  0  0  0  0  0  0  0  0  0  0  0
   -0.0113    0.0277    2.4241 C   0  0  0  0  0  0  0  0  0  0  0  0
   -0.7670    0.0873    3.6821 C   0  0  0  0  0  0  0  0  0  0  0  0
   -1.9242   -0.6349    3.6858 O   0  0  0  0  0  0  0  0  0  0  0  0
   -0.5133    0.7276    4.7080 O   0  0  0  0  0  0  0  0  0  0  0  0
   -0.5503   -0.0115   -0.9527 H   0  0  0  0  0  0  0  0  0  0  0  0
    1.9463   -0.0082   -0.9538 H   0  0  0  0  0  0  0  0  0  0  0  0
    3.1992   -0.0266    1.2154 H   0  0  0  0  0  0  0  0  0  0  0  0
    2.2551    2.4494    2.7752 H   0  0  0  0  0  0  0  0  0  0  0  0
    1.0463    2.4139    4.1422 H   0  0  0  0  0  0  0  0  0  0  0  0
    2.7245    3.0728    4.4250 H   0  0  0  0  0  0  0  0  0  0  0  0
   -1.8018   -0.0090    1.2111 H   0  0  0  0  0  0  0  0  0  0  0  0
   -2.3527   -0.5478    4.5542 H   0  0  0  0  0  0  0  0  0  0  0  0
  1  2  2  0  0  0  0
  1  9  1  0  0  0  0
  2  3  1  0  0  0  0
  3 16  1  0  0  0  0
  3  4  2  0  0  0  0
  4 10  1  0  0  0  0
  4  5  1  0  0  0  0
  5  6  1  0  0  0  0
  6  8  2  0  0  0  0
  7  6  1  0  0  0  0
  7 18  1  0  0  0  0
  7 19  1  0  0  0  0
  9 20  1  0  0  0  0
  9 10  2  0  0  0  0
 10 11  1  0  0  0  0
 11 12  1  0  0  0  0
 11 13  2  0  0  0  0
 12 21  1  0  0  0  0
 14  1  1  0  0  0  0
 15  2  1  0  0  0  0
 17  7  1  0  0  0  0
M  END