A20
  Mrv0541 08111511043D          

 51 54  0  0  0  0            999 V2000
    0.0000    0.0000    0.0000 S   0  0  0  0  0  0  0  0  0  0  0  0
    1.7842    0.0000    0.0000 C   0  0  1  0  0  0  0  0  0  0  0  0
    2.2821    0.0000    1.3933 N   0  0  2  0  0  0  0  0  0  0  0  0
    2.8703   -1.3167    1.2707 C   0  0  0  0  0  0  0  0  0  0  0  0
    3.4038   -2.0399    2.0940 O   0  0  0  0  0  0  0  0  0  0  0  0
    2.5496   -1.3573   -0.2663 C   0  0  1  0  0  0  0  0  0  0  0  0
    1.7830   -2.4441   -0.7403 N   0  0  0  0  0  0  0  0  0  0  0  0
    2.3566   -3.4941   -1.4516 C   0  0  0  0  0  0  0  0  0  0  0  0
    3.5295   -3.4163   -1.8626 O   0  0  0  0  0  0  0  0  0  0  0  0
    1.4837   -4.6746   -1.7124 C   0  0  0  0  0  0  0  0  0  0  0  0
    1.3356   -5.1575   -3.0474 C   0  0  0  0  0  0  0  0  0  0  0  0
    0.5472   -6.3149   -3.2815 C   0  0  0  0  0  0  0  0  0  0  0  0
   -0.0698   -6.9782   -2.1862 C   0  0  0  0  0  0  0  0  0  0  0  0
    0.3882   -6.7974   -4.6092 C   0  0  0  0  0  0  0  0  0  0  0  0
    0.9909   -6.1559   -5.6626 C   0  0  0  0  0  0  0  0  0  0  0  0
    1.9524   -4.5183   -4.1596 C   0  0  0  0  0  0  0  0  0  0  0  0
    1.7827   -5.0061   -5.4322 C   0  0  0  0  0  0  0  0  0  0  0  0
    0.8372   -5.3310   -0.6722 C   0  0  0  0  0  0  0  0  0  0  0  0
    0.9022   -4.7705    0.5901 O   0  0  0  0  0  0  0  0  0  0  0  0
    1.0821   -5.7043    1.6704 C   0  0  1  0  0  0  0  0  0  0  0  0
    1.5337   -4.8832    2.8555 C   0  0  0  0  0  0  0  0  0  0  0  0
    0.0697   -6.5045   -0.9084 C   0  0  0  0  0  0  0  0  0  0  0  0
   -0.1622    0.0768    1.8103 C   0  0  1  0  0  0  0  0  0  0  0  0
    1.2720    0.2851    2.3880 C   0  0  2  0  0  0  0  0  0  0  0  0
    1.4147    1.6827    2.9760 C   0  0  0  0  0  0  0  0  0  0  0  0
    1.6419    2.7004    2.1068 O   0  0  0  0  0  0  0  0  0  0  0  0
    1.3351    1.9688    4.1738 O   0  0  0  0  0  0  0  0  0  0  0  0
   -1.1000    1.2096    2.1462 C   0  0  0  0  0  0  0  0  0  0  0  0
   -0.7242   -1.2399    2.2981 C   0  0  0  0  0  0  0  0  0  0  0  0
   -0.6675   -7.8819   -2.3853 H   0  0  0  0  0  0  0  0  0  0  0  0
    0.8691   -6.5265   -6.6910 H   0  0  0  0  0  0  0  0  0  0  0  0
   -0.2274   -7.6949   -4.7723 H   0  0  0  0  0  0  0  0  0  0  0  0
    2.2645   -4.5085   -6.2874 H   0  0  0  0  0  0  0  0  0  0  0  0
    2.5851   -3.6333   -3.9803 H   0  0  0  0  0  0  0  0  0  0  0  0
    1.7530   -5.5658    3.7104 H   0  0  0  0  0  0  0  0  0  0  0  0
    2.4539   -4.2989    2.6046 H   0  0  0  0  0  0  0  0  0  0  0  0
    0.7356   -4.1631    3.1575 H   0  0  0  0  0  0  0  0  0  0  0  0
    0.1000   -6.2066    1.8739 H   0  0  0  0  0  0  0  0  0  0  0  0
    1.8465   -6.4723    1.3860 H   0  0  0  0  0  0  0  0  0  0  0  0
   -0.4113   -7.0111   -0.0596 H   0  0  0  0  0  0  0  0  0  0  0  0
    0.8766   -2.5735   -0.3419 H   0  0  0  0  0  0  0  0  0  0  0  0
    3.4786   -1.2246   -0.8853 H   0  0  0  0  0  0  0  0  0  0  0  0
    2.1726    0.8521   -0.6025 H   0  0  0  0  0  0  0  0  0  0  0  0
    1.7474    3.5301    2.6038 H   0  0  0  0  0  0  0  0  0  0  0  0
    1.4242   -0.4163    3.2686 H   0  0  0  0  0  0  0  0  0  0  0  0
   -2.1209    0.9944    1.7456 H   0  0  0  0  0  0  0  0  0  0  0  0
   -1.1734    1.3340    3.2560 H   0  0  0  0  0  0  0  0  0  0  0  0
   -0.7388    2.1694    1.6992 H   0  0  0  0  0  0  0  0  0  0  0  0
   -0.8951   -1.2019    3.4026 H   0  0  0  0  0  0  0  0  0  0  0  0
   -1.7011   -1.4491    1.7972 H   0  0  0  0  0  0  0  0  0  0  0  0
   -0.0237   -2.0822    2.0735 H   0  0  0  0  0  0  0  0  0  0  0  0
  1 23  1  0  0  0  0
  2  1  1  0  0  0  0
  2 43  1  6  0  0  0
  2  3  1  0  0  0  0
  3 24  1  0  0  0  0
  4  3  1  0  0  0  0
  4  5  2  0  0  0  0
  6  2  1  0  0  0  0
  6  4  1  0  0  0  0
  6 42  1  6  0  0  0
  7  6  1  0  0  0  0
  7 41  1  0  0  0  0
  8  7  1  0  0  0  0
  9  8  2  0  0  0  0
 10  8  1  0  0  0  0
 10 18  1  0  0  0  0
 11 10  2  0  0  0  0
 12 11  1  0  0  0  0
 12 13  2  0  0  0  0
 13 22  1  0  0  0  0
 14 12  1  0  0  0  0
 15 14  2  0  0  0  0
 15 17  1  0  0  0  0
 16 11  1  0  0  0  0
 16 34  1  0  0  0  0
 17 16  2  0  0  0  0
 18 19  1  0  0  0  0
 19 20  1  0  0  0  0
 20 38  1  0  0  0  0
 20 21  1  0  0  0  0
 21 37  1  0  0  0  0
 21 35  1  0  0  0  0
 22 18  2  0  0  0  0
 22 40  1  0  0  0  0
 23 28  1  0  0  0  0
 23 29  1  0  0  0  0
 23 24  1  0  0  0  0
 24 25  1  0  0  0  0
 24 45  1  1  0  0  0
 25 27  2  0  0  0  0
 26 25  1  0  0  0  0
 26 44  1  0  0  0  0
 28 47  1  0  0  0  0
 29 49  1  0  0  0  0
 30 13  1  0  0  0  0
 31 15  1  0  0  0  0
 32 14  1  0  0  0  0
 33 17  1  0  0  0  0
 36 21  1  0  0  0  0
 39 20  1  0  0  0  0
 46 28  1  0  0  0  0
 48 28  1  0  0  0  0
 50 29  1  0  0  0  0
 51 29  1  0  0  0  0
M  END