A21
  Mrv0541 08111511043D          

 31 32  0  0  0  0            999 V2000
    0.0000    0.0000    0.0000 C   0  0  0  0  0  0  0  0  0  0  0  0
    1.4191    0.0000    0.0000 C   0  0  0  0  0  0  0  0  0  0  0  0
    2.1058    0.0000    1.2471 C   0  0  0  0  0  0  0  0  0  0  0  0
    1.4107   -0.0023    2.4290 C   0  0  0  0  0  0  0  0  0  0  0  0
    2.1203    0.0026   -1.2301 C   0  0  0  0  0  0  0  0  0  0  0  0
    1.4132    0.0061   -2.4225 C   0  0  0  0  0  0  0  0  0  0  0  0
    2.1867    0.0065   -3.5686 O   0  0  0  0  0  0  0  0  0  0  0  0
    1.4852    0.0234   -4.8057 C   0  0  0  0  0  0  0  0  0  0  0  0
   -0.6914    0.0055   -1.2408 C   0  0  0  0  0  0  0  0  0  0  0  0
   -0.0075    0.0082   -2.4314 C   0  0  0  0  0  0  0  0  0  0  0  0
   -0.6972   -0.0049    1.2375 C   0  0  0  0  0  0  0  0  0  0  0  0
   -0.0109   -0.0076    2.4318 C   0  0  0  0  0  0  0  0  0  0  0  0
   -0.7285   -0.0409    3.7448 C   0  0  1  0  0  0  0  0  0  0  0  0
   -1.7974    1.0217    3.7924 C   0  0  0  0  0  0  0  0  0  0  0  0
   -1.5478    2.0079    4.6995 O   0  0  0  0  0  0  0  0  0  0  0  0
   -2.8499    1.1125    3.1540 O   0  0  0  0  0  0  0  0  0  0  0  0
   -1.3657   -1.3980    3.9890 C   0  0  0  0  0  0  0  0  0  0  0  0
    3.2063    0.0037    1.2411 H   0  0  0  0  0  0  0  0  0  0  0  0
    1.9470    0.0012    3.3904 H   0  0  0  0  0  0  0  0  0  0  0  0
    3.2194    0.0022   -1.2366 H   0  0  0  0  0  0  0  0  0  0  0  0
    0.8619    0.9460   -4.8952 H   0  0  0  0  0  0  0  0  0  0  0  0
    2.3055    0.0270   -5.5680 H   0  0  0  0  0  0  0  0  0  0  0  0
    0.8524   -0.8906   -4.9143 H   0  0  0  0  0  0  0  0  0  0  0  0
   -1.7927    0.0089   -1.2307 H   0  0  0  0  0  0  0  0  0  0  0  0
   -0.5546    0.0127   -3.3845 H   0  0  0  0  0  0  0  0  0  0  0  0
   -1.8008    0.0053    1.2304 H   0  0  0  0  0  0  0  0  0  0  0  0
   -2.2659    2.6618    4.6789 H   0  0  0  0  0  0  0  0  0  0  0  0
   -1.8383   -1.4266    4.9998 H   0  0  0  0  0  0  0  0  0  0  0  0
   -2.1489   -1.6023    3.2190 H   0  0  0  0  0  0  0  0  0  0  0  0
   -0.5863   -2.1950    3.9317 H   0  0  0  0  0  0  0  0  0  0  0  0
    0.0057    0.1737    4.5756 H   0  0  0  0  0  0  0  0  0  0  0  0
  1 11  1  0  0  0  0
  2  1  1  0  0  0  0
  2  3  1  0  0  0  0
  3  4  2  0  0  0  0
  4 12  1  0  0  0  0
  4 19  1  0  0  0  0
  5  2  2  0  0  0  0
  6  5  1  0  0  0  0
  7  6  1  0  0  0  0
  8  7  1  0  0  0  0
  9  1  2  0  0  0  0
  9 24  1  0  0  0  0
 10  6  2  0  0  0  0
 10  9  1  0  0  0  0
 11 12  2  0  0  0  0
 12 13  1  0  0  0  0
 13 14  1  0  0  0  0
 13 17  1  0  0  0  0
 13 31  1  1  0  0  0
 14 15  1  0  0  0  0
 16 14  2  0  0  0  0
 17 28  1  0  0  0  0
 18  3  1  0  0  0  0
 20  5  1  0  0  0  0
 21  8  1  0  0  0  0
 22  8  1  0  0  0  0
 23  8  1  0  0  0  0
 25 10  1  0  0  0  0
 26 11  1  0  0  0  0
 27 15  1  0  0  0  0
 29 17  1  0  0  0  0
 30 17  1  0  0  0  0
M  END