A22
  Mrv0541 08111511043D          

 47 50  0  0  0  0            999 V2000
    0.0000    0.0000    0.0000 S   0  0  0  0  0  0  0  0  0  0  0  0
    1.7827    0.0000    0.0000 C   0  0  1  0  0  0  0  0  0  0  0  0
    2.2766    0.0000    1.3924 N   0  0  2  0  0  0  0  0  0  0  0  0
    2.8545   -1.3194    1.2798 C   0  0  0  0  0  0  0  0  0  0  0  0
    3.3916   -2.0415    2.1007 O   0  0  0  0  0  0  0  0  0  0  0  0
    2.5516   -1.3588   -0.2588 C   0  0  1  0  0  0  0  0  0  0  0  0
    1.8168   -2.4663   -0.7352 N   0  0  0  0  0  0  0  0  0  0  0  0
    2.2196   -3.1768   -1.8602 C   0  0  0  0  0  0  0  0  0  0  0  0
    3.2888   -2.8971   -2.4413 O   0  0  0  0  0  0  0  0  0  0  0  0
    1.3393   -4.2462   -2.3371 C   0  0  0  0  0  0  0  0  0  0  0  0
    0.3205   -5.0307   -1.6286 C   0  0  0  0  0  0  0  0  0  0  0  0
   -0.2454   -5.8861   -2.5093 N   0  0  0  0  0  0  0  0  0  0  0  0
   -0.0346   -4.9610   -0.2175 C   0  0  0  0  0  0  0  0  0  0  0  0
    0.9632   -5.0231    0.7648 C   0  0  0  0  0  0  0  0  0  0  0  0
    0.6137   -4.9912    2.1136 C   0  0  0  0  0  0  0  0  0  0  0  0
   -0.7272   -4.9036    2.4889 C   0  0  0  0  0  0  0  0  0  0  0  0
   -1.3817   -4.8818    0.1616 C   0  0  0  0  0  0  0  0  0  0  0  0
   -1.7223   -4.8497    1.5130 C   0  0  0  0  0  0  0  0  0  0  0  0
    1.3064   -4.7319   -3.6405 C   0  0  0  0  0  0  0  0  0  0  0  0
    0.3125   -5.7270   -3.6943 O   0  0  0  0  0  0  0  0  0  0  0  0
    2.0372   -4.4395   -4.8713 C   0  0  0  0  0  0  0  0  0  0  0  0
   -0.1626    0.2311    1.7996 C   0  0  1  0  0  0  0  0  0  0  0  0
    1.2803    0.3269    2.3869 C   0  0  2  0  0  0  0  0  0  0  0  0
    1.5138    1.6982    3.0087 C   0  0  0  0  0  0  0  0  0  0  0  0
    1.8261    2.7157    2.1659 O   0  0  0  0  0  0  0  0  0  0  0  0
    1.4378    1.9620    4.2116 O   0  0  0  0  0  0  0  0  0  0  0  0
   -0.9751    1.4820    2.0306 C   0  0  0  0  0  0  0  0  0  0  0  0
   -0.8760   -0.9721    2.3725 C   0  0  0  0  0  0  0  0  0  0  0  0
   -0.9996   -4.8857    3.5548 H   0  0  0  0  0  0  0  0  0  0  0  0
    1.4008   -5.0411    2.8814 H   0  0  0  0  0  0  0  0  0  0  0  0
    2.0215   -5.1054    0.4714 H   0  0  0  0  0  0  0  0  0  0  0  0
   -2.7807   -4.7902    1.8075 H   0  0  0  0  0  0  0  0  0  0  0  0
   -2.1690   -4.8519   -0.6072 H   0  0  0  0  0  0  0  0  0  0  0  0
    1.3541   -3.9660   -5.6219 H   0  0  0  0  0  0  0  0  0  0  0  0
    2.8837   -3.7402   -4.6439 H   0  0  0  0  0  0  0  0  0  0  0  0
    2.4454   -5.3841   -5.3127 H   0  0  0  0  0  0  0  0  0  0  0  0
    0.9120   -2.6300   -0.3497 H   0  0  0  0  0  0  0  0  0  0  0  0
    3.4866   -1.2063   -0.8672 H   0  0  0  0  0  0  0  0  0  0  0  0
    2.1752    0.8509   -0.6020 H   0  0  0  0  0  0  0  0  0  0  0  0
    1.9865    3.5240    2.6833 H   0  0  0  0  0  0  0  0  0  0  0  0
    1.3786   -0.4023    3.2528 H   0  0  0  0  0  0  0  0  0  0  0  0
   -2.0004    1.3566    1.6039 H   0  0  0  0  0  0  0  0  0  0  0  0
   -1.0705    1.6844    3.1272 H   0  0  0  0  0  0  0  0  0  0  0  0
   -0.4933    2.3649    1.5412 H   0  0  0  0  0  0  0  0  0  0  0  0
   -1.0416   -0.8350    3.4701 H   0  0  0  0  0  0  0  0  0  0  0  0
   -1.8711   -1.0981    1.8794 H   0  0  0  0  0  0  0  0  0  0  0  0
   -0.2823   -1.9055    2.2148 H   0  0  0  0  0  0  0  0  0  0  0  0
  1  2  1  0  0  0  0
  1 22  1  0  0  0  0
  2 39  1  6  0  0  0
  2  3  1  0  0  0  0
  3 23  1  0  0  0  0
  4  3  1  0  0  0  0
  4  5  2  0  0  0  0
  6  2  1  0  0  0  0
  6  4  1  0  0  0  0
  6 38  1  6  0  0  0
  7  6  1  0  0  0  0
  7 37  1  0  0  0  0
  8  7  1  0  0  0  0
  9  8  2  0  0  0  0
 10  8  1  0  0  0  0
 10 11  1  0  0  0  0
 11 13  1  0  0  0  0
 12 11  2  0  0  0  0
 13 17  2  0  0  0  0
 13 14  1  0  0  0  0
 14 15  2  0  0  0  0
 15 16  1  0  0  0  0
 15 30  1  0  0  0  0
 16 29  1  0  0  0  0
 17 18  1  0  0  0  0
 18 16  2  0  0  0  0
 18 32  1  0  0  0  0
 19 10  2  0  0  0  0
 20 12  1  0  0  0  0
 20 19  1  0  0  0  0
 21 19  1  0  0  0  0
 21 35  1  0  0  0  0
 22 27  1  0  0  0  0
 22 28  1  0  0  0  0
 22 23  1  0  0  0  0
 23 24  1  0  0  0  0
 23 41  1  1  0  0  0
 24 26  2  0  0  0  0
 25 24  1  0  0  0  0
 25 40  1  0  0  0  0
 27 43  1  0  0  0  0
 28 45  1  0  0  0  0
 31 14  1  0  0  0  0
 33 17  1  0  0  0  0
 34 21  1  0  0  0  0
 36 21  1  0  0  0  0
 42 27  1  0  0  0  0
 44 27  1  0  0  0  0
 46 28  1  0  0  0  0
 47 28  1  0  0  0  0
M  END