A23
  Mrv0541 08111511043D          

 30 32  0  0  0  0            999 V2000
    0.0000    0.0000    0.0000 O   0  0  0  0  0  0  0  0  0  0  0  0
    1.3871    0.0000    0.0000 C   0  0  0  0  0  0  0  0  0  0  0  0
    2.2312    0.0000    1.0826 C   0  0  0  0  0  0  0  0  0  0  0  0
    3.6330   -0.0017    0.8002 C   0  0  0  0  0  0  0  0  0  0  0  0
    4.5653   -0.0246    1.8550 N   0  0  0  0  0  0  0  0  0  0  0  0
    4.1315   -0.0588    3.2416 C   0  0  1  0  0  0  0  0  0  0  0  0
    3.6935    1.2816    3.8097 C   0  0  0  0  0  0  0  0  0  0  0  0
    5.9055    0.0603    1.5771 C   0  0  0  0  0  0  0  0  0  0  0  0
    6.4223    0.0945    0.3049 C   0  0  0  0  0  0  0  0  0  0  0  0
    7.8655    0.1917    0.1147 C   0  0  0  0  0  0  0  0  0  0  0  0
    8.5938    0.0383    1.2732 O   0  0  0  0  0  0  0  0  0  0  0  0
    8.5310    0.3975   -0.9016 O   0  0  0  0  0  0  0  0  0  0  0  0
    4.0970    0.0127   -0.5393 C   0  0  0  0  0  0  0  0  0  0  0  0
    5.5420    0.0308   -0.8609 C   0  0  0  0  0  0  0  0  0  0  0  0
    5.9428   -0.0127   -2.0316 O   0  0  0  0  0  0  0  0  0  0  0  0
    1.8574    0.0054   -1.3426 C   0  0  0  0  0  0  0  0  0  0  0  0
    3.1975    0.0138   -1.6334 C   0  0  0  0  0  0  0  0  0  0  0  0
   -0.4203    0.0022   -1.3879 C   0  0  2  0  0  0  0  0  0  0  0  0
    0.7680    0.0061   -2.2100 O   0  0  0  0  0  0  0  0  0  0  0  0
    4.5329    2.0177    3.7979 H   0  0  0  0  0  0  0  0  0  0  0  0
    2.8408    1.7106    3.2300 H   0  0  0  0  0  0  0  0  0  0  0  0
    3.3669    1.1286    4.8668 H   0  0  0  0  0  0  0  0  0  0  0  0
    3.2876   -0.8024    3.3281 H   0  0  0  0  0  0  0  0  0  0  0  0
    4.9867   -0.4545    3.8637 H   0  0  0  0  0  0  0  0  0  0  0  0
    9.5384    0.1124    1.0642 H   0  0  0  0  0  0  0  0  0  0  0  0
    6.5838    0.0886    2.4576 H   0  0  0  0  0  0  0  0  0  0  0  0
    1.8313    0.0095    2.1043 H   0  0  0  0  0  0  0  0  0  0  0  0
    3.5905    0.0209   -2.6629 H   0  0  0  0  0  0  0  0  0  0  0  0
   -0.9944    0.9415   -1.5814 H   0  0  0  0  0  0  0  0  0  0  0  0
   -0.9910   -0.9382   -1.5855 H   0  0  0  0  0  0  0  0  0  0  0  0
  1  2  1  0  0  0  0
  2  3  1  0  0  0  0
  3 27  1  0  0  0  0
  4  3  2  0  0  0  0
  4  5  1  0  0  0  0
  5  6  1  0  0  0  0
  6 23  1  0  0  0  0
  6  7  1  0  0  0  0
  6 24  1  0  0  0  0
  7 22  1  0  0  0  0
  8  5  1  0  0  0  0
  8 26  1  0  0  0  0
  9  8  2  0  0  0  0
 10  9  1  0  0  0  0
 10 11  1  0  0  0  0
 12 10  2  0  0  0  0
 13  4  1  0  0  0  0
 14  9  1  0  0  0  0
 14 13  1  0  0  0  0
 15 14  2  0  0  0  0
 16  2  2  0  0  0  0
 17 13  2  0  0  0  0
 17 16  1  0  0  0  0
 18  1  1  0  0  0  0
 19 16  1  0  0  0  0
 19 18  1  0  0  0  0
 20  7  1  0  0  0  0
 21  7  1  0  0  0  0
 25 11  1  0  0  0  0
 28 17  1  0  0  0  0
 29 18  1  0  0  0  0
 30 18  1  0  0  0  0
M  END