A24
  Mrv0541 08111511043D          

 41 43  0  0  0  0            999 V2000
    0.0000    0.0000    0.0000 S   0  0  0  0  0  0  0  0  0  0  0  0
    1.7850    0.0000    0.0000 C   0  0  1  0  0  0  0  0  0  0  0  0
    2.2805    0.0000    1.3921 N   0  0  2  0  0  0  0  0  0  0  0  0
    2.8592   -1.3217    1.2760 C   0  0  0  0  0  0  0  0  0  0  0  0
    3.3995   -2.0400    2.0975 O   0  0  0  0  0  0  0  0  0  0  0  0
    2.5443   -1.3632   -0.2608 C   0  0  1  0  0  0  0  0  0  0  0  0
    1.7854   -2.4554   -0.7312 N   0  0  0  0  0  0  0  0  0  0  0  0
    2.2554   -3.3213   -1.7080 C   0  0  0  0  0  0  0  0  0  0  0  0
    3.3928   -3.1857   -2.1955 O   0  0  0  0  0  0  0  0  0  0  0  0
    1.3241   -4.4224   -2.1853 C   0  0  1  0  0  0  0  0  0  0  0  0
    0.4619   -4.9976   -1.1208 C   0  0  0  0  0  0  0  0  0  0  0  0
   -0.8316   -4.5027   -0.9134 C   0  0  0  0  0  0  0  0  0  0  0  0
   -1.6477   -5.0619    0.0684 C   0  0  0  0  0  0  0  0  0  0  0  0
   -1.1785   -6.1165    0.8517 C   0  0  0  0  0  0  0  0  0  0  0  0
    0.9273   -6.0575   -0.3335 C   0  0  0  0  0  0  0  0  0  0  0  0
    0.1094   -6.6124    0.6497 C   0  0  0  0  0  0  0  0  0  0  0  0
   -0.1626    0.1417    1.8086 C   0  0  1  0  0  0  0  0  0  0  0  0
    1.2776    0.3095    2.3858 C   0  0  2  0  0  0  0  0  0  0  0  0
    1.4575    1.7027    2.9753 C   0  0  0  0  0  0  0  0  0  0  0  0
    1.7165    2.7137    2.1070 O   0  0  0  0  0  0  0  0  0  0  0  0
    1.3814    1.9901    4.1728 O   0  0  0  0  0  0  0  0  0  0  0  0
   -1.0547    1.3225    2.1023 C   0  0  0  0  0  0  0  0  0  0  0  0
   -0.7812   -1.1336    2.3348 C   0  0  0  0  0  0  0  0  0  0  0  0
   -1.8238   -6.5577    1.6255 H   0  0  0  0  0  0  0  0  0  0  0  0
   -2.6649   -4.6722    0.2218 H   0  0  0  0  0  0  0  0  0  0  0  0
   -1.2083   -3.6750   -1.5334 H   0  0  0  0  0  0  0  0  0  0  0  0
    0.4824   -7.4441    1.2659 H   0  0  0  0  0  0  0  0  0  0  0  0
    1.9424   -6.4528   -0.4919 H   0  0  0  0  0  0  0  0  0  0  0  0
    0.6939   -3.9895   -3.0098 H   0  0  0  0  0  0  0  0  0  0  0  0
    1.9700   -5.2250   -2.6365 H   0  0  0  0  0  0  0  0  0  0  0  0
    0.8552   -2.5599   -0.3879 H   0  0  0  0  0  0  0  0  0  0  0  0
    3.4777   -1.2296   -0.8749 H   0  0  0  0  0  0  0  0  0  0  0  0
    2.1755    0.8504   -0.6034 H   0  0  0  0  0  0  0  0  0  0  0  0
    1.8467    3.5395    2.6047 H   0  0  0  0  0  0  0  0  0  0  0  0
    1.4105   -0.3965    3.2661 H   0  0  0  0  0  0  0  0  0  0  0  0
   -0.6486    2.2533    1.6332 H   0  0  0  0  0  0  0  0  0  0  0  0
   -2.0796    1.1395    1.6963 H   0  0  0  0  0  0  0  0  0  0  0  0
   -1.1342    1.4806    3.2074 H   0  0  0  0  0  0  0  0  0  0  0  0
   -0.9464   -1.0561    3.4382 H   0  0  0  0  0  0  0  0  0  0  0  0
   -1.7685   -1.3133    1.8431 H   0  0  0  0  0  0  0  0  0  0  0  0
   -0.1191   -2.0106    2.1337 H   0  0  0  0  0  0  0  0  0  0  0  0
  1  2  1  0  0  0  0
  1 17  1  0  0  0  0
  2 33  1  6  0  0  0
  2  3  1  0  0  0  0
  3 18  1  0  0  0  0
  4  3  1  0  0  0  0
  4  5  2  0  0  0  0
  6  2  1  0  0  0  0
  6  4  1  0  0  0  0
  6 32  1  6  0  0  0
  7  6  1  0  0  0  0
  7 31  1  0  0  0  0
  8  7  1  0  0  0  0
  9  8  2  0  0  0  0
 10  8  1  0  0  0  0
 10 11  1  0  0  0  0
 11 12  2  0  0  0  0
 11 15  1  0  0  0  0
 12 13  1  0  0  0  0
 13 25  1  0  0  0  0
 13 14  2  0  0  0  0
 14 24  1  0  0  0  0
 15 16  2  0  0  0  0
 16 14  1  0  0  0  0
 16 27  1  0  0  0  0
 17 22  1  0  0  0  0
 17 23  1  0  0  0  0
 17 18  1  0  0  0  0
 18 19  1  0  0  0  0
 18 35  1  1  0  0  0
 19 21  2  0  0  0  0
 20 19  1  0  0  0  0
 20 34  1  0  0  0  0
 22 38  1  0  0  0  0
 23 39  1  0  0  0  0
 26 12  1  0  0  0  0
 28 15  1  0  0  0  0
 29 10  1  0  0  0  0
 30 10  1  0  0  0  0
 36 22  1  0  0  0  0
 37 22  1  0  0  0  0
 40 23  1  0  0  0  0
 41 23  1  0  0  0  0
M  END