A26
  Mrv0541 08111511043D          

 43 45  0  0  0  0            999 V2000
    0.0000    0.0000    0.0000 O   0  0  0  0  0  0  0  0  0  0  0  0
    1.2300    0.0000    0.0000 C   0  0  0  0  0  0  0  0  0  0  0  0
    2.0437    0.0000    1.2012 N   0  0  1  0  0  0  0  0  0  0  0  0
    3.4027    0.0748    0.8446 N   0  0  1  0  0  0  0  0  0  0  0  0
    4.3474   -0.6350    1.6696 C   0  0  0  0  0  0  0  0  0  0  0  0
    5.7160   -0.3279    1.5012 C   0  0  0  0  0  0  0  0  0  0  0  0
    6.6689   -0.9422    2.3077 C   0  0  0  0  0  0  0  0  0  0  0  0
    6.2882   -1.8581    3.2874 C   0  0  0  0  0  0  0  0  0  0  0  0
    3.9692   -1.5702    2.6519 C   0  0  0  0  0  0  0  0  0  0  0  0
    4.9401   -2.1672    3.4535 C   0  0  0  0  0  0  0  0  0  0  0  0
    1.5951    0.8275    2.2924 C   0  0  0  0  0  0  0  0  0  0  0  0
    0.3226    0.5481    2.8389 C   0  0  0  0  0  0  0  0  0  0  0  0
   -0.1390    1.2777    3.9300 C   0  0  0  0  0  0  0  0  0  0  0  0
    0.6435    2.2829    4.4963 C   0  0  0  0  0  0  0  0  0  0  0  0
    2.3761    1.8522    2.8602 C   0  0  0  0  0  0  0  0  0  0  0  0
    1.8968    2.5646    3.9576 C   0  0  0  0  0  0  0  0  0  0  0  0
    2.1429   -0.1220   -1.2194 C   0  0  1  0  0  0  0  0  0  0  0  0
    1.9145    0.9675   -2.2429 C   0  0  2  0  0  0  0  0  0  0  0  0
    2.0955    2.3617   -1.6815 C   0  0  1  0  0  0  0  0  0  0  0  0
    1.8770    3.4095   -2.7525 C   0  0  2  0  0  0  0  0  0  0  0  0
    2.0512    4.8012   -2.2017 C   0  0  0  0  0  0  0  0  0  0  0  0
    3.5350   -0.0887   -0.5908 C   0  0  0  0  0  0  0  0  0  0  0  0
    4.6118   -0.1278   -1.1841 O   0  0  0  0  0  0  0  0  0  0  0  0
    7.0478   -2.3351    3.9233 H   0  0  0  0  0  0  0  0  0  0  0  0
    7.7326   -0.6981    2.1657 H   0  0  0  0  0  0  0  0  0  0  0  0
    6.0356    0.3810    0.7201 H   0  0  0  0  0  0  0  0  0  0  0  0
    4.6322   -2.8922    4.2219 H   0  0  0  0  0  0  0  0  0  0  0  0
    2.9132   -1.8390    2.8083 H   0  0  0  0  0  0  0  0  0  0  0  0
    0.2724    2.8511    5.3614 H   0  0  0  0  0  0  0  0  0  0  0  0
   -1.1331    1.0537    4.3456 H   0  0  0  0  0  0  0  0  0  0  0  0
   -0.3160   -0.2319    2.3932 H   0  0  0  0  0  0  0  0  0  0  0  0
    2.5188    3.3592    4.3968 H   0  0  0  0  0  0  0  0  0  0  0  0
    3.3700    2.1023    2.4582 H   0  0  0  0  0  0  0  0  0  0  0  0
    3.0820    4.9381   -1.7941 H   0  0  0  0  0  0  0  0  0  0  0  0
    1.3207    4.9943   -1.3791 H   0  0  0  0  0  0  0  0  0  0  0  0
    1.8860    5.5586   -3.0056 H   0  0  0  0  0  0  0  0  0  0  0  0
    0.8448    3.2988   -3.1787 H   0  0  0  0  0  0  0  0  0  0  0  0
    2.6023    3.2425   -3.5924 H   0  0  0  0  0  0  0  0  0  0  0  0
    1.3699    2.5272   -0.8411 H   0  0  0  0  0  0  0  0  0  0  0  0
    3.1301    2.4662   -1.2584 H   0  0  0  0  0  0  0  0  0  0  0  0
    0.8724    0.8577   -2.6470 H   0  0  0  0  0  0  0  0  0  0  0  0
    2.6348    0.8077   -3.0899 H   0  0  0  0  0  0  0  0  0  0  0  0
    1.9893   -1.1283   -1.6979 H   0  0  0  0  0  0  0  0  0  0  0  0
  1  2  2  0  0  0  0
  2  3  1  0  0  0  0
  3 11  1  0  0  0  0
  4  3  1  0  0  0  0
  4  5  1  0  0  0  0
  5  9  1  0  0  0  0
  6  5  2  0  0  0  0
  6  7  1  0  0  0  0
  7  8  2  0  0  0  0
  8 10  1  0  0  0  0
  8 24  1  0  0  0  0
  9 28  1  0  0  0  0
  9 10  2  0  0  0  0
 10 27  1  0  0  0  0
 11 12  2  0  0  0  0
 11 15  1  0  0  0  0
 12 13  1  0  0  0  0
 13 30  1  0  0  0  0
 13 14  2  0  0  0  0
 14 29  1  0  0  0  0
 15 16  2  0  0  0  0
 16 14  1  0  0  0  0
 16 32  1  0  0  0  0
 17  2  1  0  0  0  0
 17 43  1  6  0  0  0
 17 22  1  0  0  0  0
 18 17  1  0  0  0  0
 18 19  1  0  0  0  0
 19 40  1  0  0  0  0
 19 39  1  0  0  0  0
 20 19  1  0  0  0  0
 20 21  1  0  0  0  0
 21 34  1  0  0  0  0
 21 35  1  0  0  0  0
 22  4  1  0  0  0  0
 23 22  2  0  0  0  0
 25  7  1  0  0  0  0
 26  6  1  0  0  0  0
 31 12  1  0  0  0  0
 33 15  1  0  0  0  0
 36 21  1  0  0  0  0
 37 20  1  0  0  0  0
 38 20  1  0  0  0  0
 41 18  1  0  0  0  0
 42 18  1  0  0  0  0
M  END