A27
  Mrv0541 08111511043D          

 31 31  0  0  0  0            999 V2000
    0.0000    0.0000    0.0000 C   0  0  0  0  0  0  0  0  0  0  0  0
    1.3922    0.0000    0.0000 C   0  0  0  0  0  0  0  0  0  0  0  0
    2.1108    0.0000    1.1991 C   0  0  0  0  0  0  0  0  0  0  0  0
    1.3879    0.0217    2.4106 C   0  0  0  0  0  0  0  0  0  0  0  0
    2.0028    0.0212    3.6456 O   0  0  0  0  0  0  0  0  0  0  0  0
    3.6076   -0.0236    1.2036 C   0  0  2  0  0  0  0  0  0  0  0  0
    4.1666    1.3758    1.3922 C   0  0  0  0  0  0  0  0  0  0  0  0
    4.1942   -0.6509   -0.0460 C   0  0  0  0  0  0  0  0  0  0  0  0
   -0.7003    0.0023    1.2035 C   0  0  0  0  0  0  0  0  0  0  0  0
   -0.0235    0.0169    2.4254 C   0  0  0  0  0  0  0  0  0  0  0  0
   -0.7811    0.0244    3.7164 C   0  0  1  0  0  0  0  0  0  0  0  0
   -1.6681    1.2512    3.8187 C   0  0  0  0  0  0  0  0  0  0  0  0
   -1.6059   -1.2403    3.8660 C   0  0  0  0  0  0  0  0  0  0  0  0
   -0.5476   -0.0034   -0.9534 H   0  0  0  0  0  0  0  0  0  0  0  0
    1.9296   -0.0027   -0.9605 H   0  0  0  0  0  0  0  0  0  0  0  0
    2.9307    0.2680    3.5278 H   0  0  0  0  0  0  0  0  0  0  0  0
    5.2805    1.3370    1.4573 H   0  0  0  0  0  0  0  0  0  0  0  0
    3.8835    2.0276    0.5310 H   0  0  0  0  0  0  0  0  0  0  0  0
    3.7685    1.8390    2.3269 H   0  0  0  0  0  0  0  0  0  0  0  0
    4.0818    0.0265   -0.9266 H   0  0  0  0  0  0  0  0  0  0  0  0
    5.2843   -0.8419    0.1067 H   0  0  0  0  0  0  0  0  0  0  0  0
    3.6894   -1.6204   -0.2719 H   0  0  0  0  0  0  0  0  0  0  0  0
    3.9435   -0.6642    2.0734 H   0  0  0  0  0  0  0  0  0  0  0  0
   -1.8013   -0.0040    1.1982 H   0  0  0  0  0  0  0  0  0  0  0  0
   -1.0572    2.1811    3.7301 H   0  0  0  0  0  0  0  0  0  0  0  0
   -2.4374    1.2539    3.0095 H   0  0  0  0  0  0  0  0  0  0  0  0
   -2.1916    1.2602    4.8049 H   0  0  0  0  0  0  0  0  0  0  0  0
   -2.1405   -1.2321    4.8462 H   0  0  0  0  0  0  0  0  0  0  0  0
   -2.3634   -1.3178    3.0493 H   0  0  0  0  0  0  0  0  0  0  0  0
   -0.9472   -2.1405    3.8257 H   0  0  0  0  0  0  0  0  0  0  0  0
   -0.0428    0.0594    4.5702 H   0  0  0  0  0  0  0  0  0  0  0  0
  1  2  2  0  0  0  0
  1  9  1  0  0  0  0
  2  3  1  0  0  0  0
  3  6  1  0  0  0  0
  3  4  2  0  0  0  0
  4 10  1  0  0  0  0
  4  5  1  0  0  0  0
  6  7  1  0  0  0  0
  6 23  1  0  0  0  0
  7 17  1  0  0  0  0
  7 19  1  0  0  0  0
  8  6  1  0  0  0  0
  8 21  1  0  0  0  0
  9 10  2  0  0  0  0
 10 11  1  0  0  0  0
 11 12  1  0  0  0  0
 11 13  1  0  0  0  0
 11 31  1  0  0  0  0
 12 27  1  0  0  0  0
 13 28  1  0  0  0  0
 14  1  1  0  0  0  0
 15  2  1  0  0  0  0
 16  5  1  0  0  0  0
 18  7  1  0  0  0  0
 20  8  1  0  0  0  0
 22  8  1  0  0  0  0
 24  9  1  0  0  0  0
 25 12  1  0  0  0  0
 26 12  1  0  0  0  0
 29 13  1  0  0  0  0
 30 13  1  0  0  0  0
M  END