A28
  Mrv0541 08111511043D          

 16 16  0  0  0  0            999 V2000
    0.0000    0.0000    0.0000 O   0  0  0  0  0  0  0  0  0  0  0  0
    1.3658    0.0000    0.0000 C   0  0  0  0  0  0  0  0  0  0  0  0
    2.1982    0.0000    1.1335 C   0  0  0  0  0  0  0  0  0  0  0  0
    3.5973    0.0009    0.9442 C   0  0  0  0  0  0  0  0  0  0  0  0
    4.1476    0.0014   -0.3264 C   0  0  0  0  0  0  0  0  0  0  0  0
    1.7475   -0.0010    2.5246 C   0  0  0  0  0  0  0  0  0  0  0  0
    0.3958   -0.0114    2.7391 O   0  0  0  0  0  0  0  0  0  0  0  0
    2.4402    0.0059    3.5495 O   0  0  0  0  0  0  0  0  0  0  0  0
    1.9342    0.0004   -1.2966 C   0  0  0  0  0  0  0  0  0  0  0  0
    3.3095    0.0010   -1.4495 C   0  0  0  0  0  0  0  0  0  0  0  0
    5.2394    0.0020   -0.4559 H   0  0  0  0  0  0  0  0  0  0  0  0
    4.2460    0.0013    1.8373 H   0  0  0  0  0  0  0  0  0  0  0  0
    0.2178   -0.0110    3.6940 H   0  0  0  0  0  0  0  0  0  0  0  0
    3.7482    0.0012   -2.4595 H   0  0  0  0  0  0  0  0  0  0  0  0
    1.2591    0.0003   -2.1649 H   0  0  0  0  0  0  0  0  0  0  0  0
   -0.3450    0.0009    0.9044 H   0  0  0  0  0  0  0  0  0  0  0  0
  1  2  1  0  0  0  0
  1 16  1  0  0  0  0
  2  3  1  0  0  0  0
  3  6  1  0  0  0  0
  4  3  2  0  0  0  0
  4 12  1  0  0  0  0
  5  4  1  0  0  0  0
  6  7  1  0  0  0  0
  6  8  2  0  0  0  0
  7 13  1  0  0  0  0
  9  2  2  0  0  0  0
 10  5  2  0  0  0  0
 10  9  1  0  0  0  0
 11  5  1  0  0  0  0
 14 10  1  0  0  0  0
 15  9  1  0  0  0  0
M  END