A3
  Mrv0541 08111511043D          

 50 50  0  0  0  0            999 V2000
    0.0000    0.0000    0.0000 C   0  0  0  0  0  0  0  0  0  0  0  0
    1.3955    0.0000    0.0000 C   0  0  0  0  0  0  0  0  0  0  0  0
    2.1029    0.0000    1.2171 C   0  0  0  0  0  0  0  0  0  0  0  0
    1.3982    0.0237    2.4351 C   0  0  0  0  0  0  0  0  0  0  0  0
    2.1145    0.0718    3.7342 C   0  0  0  0  0  0  0  0  0  0  0  0
    3.5602   -0.0089    1.1600 C   0  0  0  0  0  0  0  0  0  0  0  0
    4.3382   -0.8792    1.8232 C   0  0  0  0  0  0  0  0  0  0  0  0
    5.7930   -0.9135    1.7438 C   0  0  0  0  0  0  0  0  0  0  0  0
    6.4463   -2.0178    2.1735 C   0  0  0  0  0  0  0  0  0  0  0  0
    7.8745   -2.2212    2.1370 C   0  0  0  0  0  0  0  0  0  0  0  0
    8.4492   -3.3365    2.6297 C   0  0  0  0  0  0  0  0  0  0  0  0
    9.8771   -3.5957    2.6158 C   0  0  0  0  0  0  0  0  0  0  0  0
   10.4387   -4.7055    3.1443 C   0  0  0  0  0  0  0  0  0  0  0  0
    9.7262   -5.7960    3.7985 C   0  0  0  0  0  0  0  0  0  0  0  0
   10.5598   -6.7903    4.2382 O   0  0  0  0  0  0  0  0  0  0  0  0
    8.5222   -5.9779    4.0220 O   0  0  0  0  0  0  0  0  0  0  0  0
   10.7569   -2.5758    1.9817 C   0  0  0  0  0  0  0  0  0  0  0  0
    6.4691    0.2808    1.1819 C   0  0  0  0  0  0  0  0  0  0  0  0
    2.1258   -0.0044   -1.2907 C   0  0  0  0  0  0  0  0  0  0  0  0
   -0.6940    0.0024    1.2131 C   0  0  0  0  0  0  0  0  0  0  0  0
   -0.0060    0.0126    2.4443 C   0  0  0  0  0  0  0  0  0  0  0  0
   -0.7546    0.0158    3.7229 C   0  0  0  0  0  0  0  0  0  0  0  0
   -2.0749    0.0028    1.3030 O   0  0  0  0  0  0  0  0  0  0  0  0
   -2.7875   -0.0766    0.0747 C   0  0  0  0  0  0  0  0  0  0  0  0
   -0.5385   -0.0037   -0.9581 H   0  0  0  0  0  0  0  0  0  0  0  0
    2.1287   -0.9465    4.1995 H   0  0  0  0  0  0  0  0  0  0  0  0
    3.1699    0.4184    3.6098 H   0  0  0  0  0  0  0  0  0  0  0  0
    1.6012    0.7716    4.4409 H   0  0  0  0  0  0  0  0  0  0  0  0
    3.9983    0.7484    0.4845 H   0  0  0  0  0  0  0  0  0  0  0  0
    3.8783   -1.6480    2.4711 H   0  0  0  0  0  0  0  0  0  0  0  0
    8.4856   -1.4245    1.6789 H   0  0  0  0  0  0  0  0  0  0  0  0
    7.8214   -4.1281    3.0841 H   0  0  0  0  0  0  0  0  0  0  0  0
   11.5330   -4.8511    3.1050 H   0  0  0  0  0  0  0  0  0  0  0  0
   10.0316   -7.4854    4.6629 H   0  0  0  0  0  0  0  0  0  0  0  0
   10.4598   -2.4262    0.9135 H   0  0  0  0  0  0  0  0  0  0  0  0
   10.6561   -1.5991    2.5183 H   0  0  0  0  0  0  0  0  0  0  0  0
   11.8315   -2.8817    2.0081 H   0  0  0  0  0  0  0  0  0  0  0  0
    5.8601   -2.8598    2.5883 H   0  0  0  0  0  0  0  0  0  0  0  0
    6.4247    0.2526    0.0636 H   0  0  0  0  0  0  0  0  0  0  0  0
    5.9629    1.2165    1.5291 H   0  0  0  0  0  0  0  0  0  0  0  0
    7.5408    0.3400    1.4901 H   0  0  0  0  0  0  0  0  0  0  0  0
    2.8896   -0.8216   -1.3046 H   0  0  0  0  0  0  0  0  0  0  0  0
    1.4303   -0.1564   -2.1521 H   0  0  0  0  0  0  0  0  0  0  0  0
    2.6556    0.9713   -1.4345 H   0  0  0  0  0  0  0  0  0  0  0  0
   -1.8321   -0.2357    3.5627 H   0  0  0  0  0  0  0  0  0  0  0  0
   -0.3197   -0.7317    4.4328 H   0  0  0  0  0  0  0  0  0  0  0  0
   -0.6979    1.0275    4.1989 H   0  0  0  0  0  0  0  0  0  0  0  0
   -2.5236   -1.0103   -0.4786 H   0  0  0  0  0  0  0  0  0  0  0  0
   -3.8592   -0.0993    0.3983 H   0  0  0  0  0  0  0  0  0  0  0  0
   -2.5872    0.8233   -0.5561 H   0  0  0  0  0  0  0  0  0  0  0  0
  1  2  2  0  0  0  0
  1 20  1  0  0  0  0
  2  3  1  0  0  0  0
  3  4  2  0  0  0  0
  4 21  1  0  0  0  0
  4  5  1  0  0  0  0
  5 26  1  0  0  0  0
  5 28  1  0  0  0  0
  6  3  1  0  0  0  0
  6  7  2  0  0  0  0
  7 30  1  0  0  0  0
  8  7  1  0  0  0  0
  8  9  2  0  0  0  0
  9 38  1  0  0  0  0
 10  9  1  0  0  0  0
 10 11  2  0  0  0  0
 11 32  1  0  0  0  0
 12 11  1  0  0  0  0
 12 13  2  0  0  0  0
 13 14  1  0  0  0  0
 14 16  2  0  0  0  0
 14 15  1  0  0  0  0
 15 34  1  0  0  0  0
 17 12  1  0  0  0  0
 17 37  1  0  0  0  0
 17 36  1  0  0  0  0
 18  8  1  0  0  0  0
 18 41  1  0  0  0  0
 18 40  1  0  0  0  0
 19  2  1  0  0  0  0
 20 23  1  0  0  0  0
 20 21  2  0  0  0  0
 21 22  1  0  0  0  0
 22 47  1  0  0  0  0
 22 46  1  0  0  0  0
 24 23  1  0  0  0  0
 24 49  1  0  0  0  0
 25  1  1  0  0  0  0
 27  5  1  0  0  0  0
 29  6  1  0  0  0  0
 31 10  1  0  0  0  0
 33 13  1  0  0  0  0
 35 17  1  0  0  0  0
 39 18  1  0  0  0  0
 42 19  1  0  0  0  0
 43 19  1  0  0  0  0
 44 19  1  0  0  0  0
 45 22  1  0  0  0  0
 48 24  1  0  0  0  0
 50 24  1  0  0  0  0
M  END