A30
  Mrv0541 08111511043D          

 21 22  0  0  0  0            999 V2000
    0.0000    0.0000    0.0000 O   0  0  0  0  0  0  0  0  0  0  0  0
    1.2440    0.0000    0.0000 C   0  0  0  0  0  0  0  0  0  0  0  0
    1.9515    0.0000    1.2116 N   0  0  0  0  0  0  0  0  0  0  0  0
    3.3572   -0.0003    1.3244 C   0  0  0  0  0  0  0  0  0  0  0  0
    3.8772   -0.0005    2.4614 O   0  0  0  0  0  0  0  0  0  0  0  0
    2.0995   -0.0001   -1.1722 C   0  0  0  0  0  0  0  0  0  0  0  0
    1.7994   -0.0002   -2.5376 N   0  0  0  0  0  0  0  0  0  0  0  0
    3.0254   -0.0005   -3.2008 C   0  0  0  0  0  0  0  0  0  0  0  0
    0.4977    0.0001   -3.1233 C   0  0  0  0  0  0  0  0  0  0  0  0
    3.5313   -0.0004   -1.0750 C   0  0  0  0  0  0  0  0  0  0  0  0
    4.1638   -0.0002    0.1608 N   0  0  0  0  0  0  0  0  0  0  0  0
    5.5995   -0.0014    0.2545 C   0  0  0  0  0  0  0  0  0  0  0  0
    4.0956   -0.0007   -2.3599 N   0  0  0  0  0  0  0  0  0  0  0  0
    1.4400    0.0000    2.0692 H   0  0  0  0  0  0  0  0  0  0  0  0
    3.1039   -0.0007   -4.2952 H   0  0  0  0  0  0  0  0  0  0  0  0
   -0.2790   -0.0005   -2.3088 H   0  0  0  0  0  0  0  0  0  0  0  0
    0.3687    0.9158   -3.7613 H   0  0  0  0  0  0  0  0  0  0  0  0
    0.3688   -0.9146   -3.7625 H   0  0  0  0  0  0  0  0  0  0  0  0
    6.0090    0.9110   -0.2561 H   0  0  0  0  0  0  0  0  0  0  0  0
    6.0074   -0.9171   -0.2513 H   0  0  0  0  0  0  0  0  0  0  0  0
    5.9064    0.0012    1.3345 H   0  0  0  0  0  0  0  0  0  0  0  0
  1  2  2  0  0  0  0
  2  3  1  0  0  0  0
  3  4  1  0  0  0  0
  3 14  1  0  0  0  0
  4  5  2  0  0  0  0
  6  2  1  0  0  0  0
  6 10  2  0  0  0  0
  7  6  1  0  0  0  0
  8  7  1  0  0  0  0
  8 13  2  0  0  0  0
  9  7  1  0  0  0  0
  9 16  1  0  0  0  0
 10 11  1  0  0  0  0
 11  4  1  0  0  0  0
 11 12  1  0  0  0  0
 12 21  1  0  0  0  0
 13 10  1  0  0  0  0
 15  8  1  0  0  0  0
 17  9  1  0  0  0  0
 18  9  1  0  0  0  0
 19 12  1  0  0  0  0
 20 12  1  0  0  0  0
M  END