A31
  Mrv0541 08111511043D          

 21 22  0  0  0  0            999 V2000
    0.0000    0.0000    0.0000 O   0  0  0  0  0  0  0  0  0  0  0  0
    1.2439    0.0000    0.0000 C   0  0  0  0  0  0  0  0  0  0  0  0
    1.9853    0.0000    1.1999 N   0  0  0  0  0  0  0  0  0  0  0  0
    3.4045    0.0006    1.2471 C   0  0  0  0  0  0  0  0  0  0  0  0
    3.9860    0.0011    2.3540 O   0  0  0  0  0  0  0  0  0  0  0  0
    1.3024    0.0008    2.4729 C   0  0  0  0  0  0  0  0  0  0  0  0
    2.0653   -0.0001   -1.1964 C   0  0  0  0  0  0  0  0  0  0  0  0
    1.7097   -0.0004   -2.5450 N   0  0  0  0  0  0  0  0  0  0  0  0
    2.9014   -0.0003   -3.2612 C   0  0  0  0  0  0  0  0  0  0  0  0
    3.4965    0.0001   -1.1576 C   0  0  0  0  0  0  0  0  0  0  0  0
    4.1694    0.0003    0.0540 N   0  0  0  0  0  0  0  0  0  0  0  0
    5.6079    0.0009    0.0962 C   0  0  0  0  0  0  0  0  0  0  0  0
    4.0070    0.0000   -2.4668 N   0  0  0  0  0  0  0  0  0  0  0  0
    0.1936   -0.0055    2.3028 H   0  0  0  0  0  0  0  0  0  0  0  0
    1.5941    0.9158    3.0543 H   0  0  0  0  0  0  0  0  0  0  0  0
    1.6036   -0.9074    3.0603 H   0  0  0  0  0  0  0  0  0  0  0  0
    2.9339   -0.0005   -4.3583 H   0  0  0  0  0  0  0  0  0  0  0  0
    0.7838   -0.0006   -2.8878 H   0  0  0  0  0  0  0  0  0  0  0  0
    5.9980   -0.9131   -0.4267 H   0  0  0  0  0  0  0  0  0  0  0  0
    5.9553    0.0010    1.1638 H   0  0  0  0  0  0  0  0  0  0  0  0
    5.9973    0.9153   -0.4266 H   0  0  0  0  0  0  0  0  0  0  0  0
  2  1  2  0  0  0  0
  2  3  1  0  0  0  0
  3  4  1  0  0  0  0
  3  6  1  0  0  0  0
  4  5  2  0  0  0  0
  6 15  1  0  0  0  0
  6 16  1  0  0  0  0
  7  2  1  0  0  0  0
  7 10  2  0  0  0  0
  8  7  1  0  0  0  0
  9  8  1  0  0  0  0
  9 13  2  0  0  0  0
 10 11  1  0  0  0  0
 11  4  1  0  0  0  0
 11 12  1  0  0  0  0
 12 20  1  0  0  0  0
 13 10  1  0  0  0  0
 14  6  1  0  0  0  0
 17  9  1  0  0  0  0
 18  8  1  0  0  0  0
 19 12  1  0  0  0  0
 21 12  1  0  0  0  0
M  END