A33
  Mrv0541 08111511043D          

 36 36  0  0  0  0            999 V2000
    0.0000    0.0000    0.0000 C   0  0  0  0  0  0  0  0  0  0  0  0
    1.3887    0.0000    0.0000 C   0  0  0  0  0  0  0  0  0  0  0  0
    2.1124    0.0000    1.2021 C   0  0  0  0  0  0  0  0  0  0  0  0
    3.7805    0.0652    1.1877 S   0  0  1  0  0  0  0  0  0  0  0  0
    4.2484   -1.5106    1.4136 N   0  0  0  0  0  0  0  0  0  0  0  0
    4.1113   -2.2776    2.5880 C   0  0  0  0  0  0  0  0  0  0  0  0
    4.7547   -3.5189    2.6802 N   0  0  0  0  0  0  0  0  0  0  0  0
    4.4325   -4.4079    3.7671 C   0  0  2  0  0  0  0  0  0  0  0  0
    3.3795   -5.4728    3.4639 C   0  0  2  0  0  0  0  0  0  0  0  0
    3.8414   -6.4698    2.4243 C   0  0  2  0  0  0  0  0  0  0  0  0
    2.8510   -7.5948    2.2637 C   0  0  0  0  0  0  0  0  0  0  0  0
    3.4629   -1.8031    3.5512 O   0  0  0  0  0  0  0  0  0  0  0  0
    4.2226    0.3830   -0.1180 O   0  0  0  0  0  0  0  0  0  0  0  0
    4.2509    0.8882    2.2160 O   0  0  0  0  0  0  0  0  0  0  0  0
   -0.7059    0.0005    1.2118 C   0  0  0  0  0  0  0  0  0  0  0  0
    0.0070   -0.0020    2.4163 C   0  0  0  0  0  0  0  0  0  0  0  0
    1.3984   -0.0031    2.4082 C   0  0  0  0  0  0  0  0  0  0  0  0
   -2.1861    0.0189    1.2146 C   0  0  0  0  0  0  0  0  0  0  0  0
   -0.5504    0.0030   -0.9527 H   0  0  0  0  0  0  0  0  0  0  0  0
    1.9386    0.0160   -0.9586 H   0  0  0  0  0  0  0  0  0  0  0  0
    3.2027   -8.3128    1.4841 H   0  0  0  0  0  0  0  0  0  0  0  0
    2.7264   -8.1506    3.2244 H   0  0  0  0  0  0  0  0  0  0  0  0
    1.8526   -7.1999    1.9559 H   0  0  0  0  0  0  0  0  0  0  0  0
    4.8398   -6.8877    2.7220 H   0  0  0  0  0  0  0  0  0  0  0  0
    3.9797   -5.9566    1.4360 H   0  0  0  0  0  0  0  0  0  0  0  0
    2.4249   -4.9893    3.1291 H   0  0  0  0  0  0  0  0  0  0  0  0
    3.1604   -6.0107    4.4244 H   0  0  0  0  0  0  0  0  0  0  0  0
    4.0803   -3.7911    4.6442 H   0  0  0  0  0  0  0  0  0  0  0  0
    5.3956   -4.9200    4.0577 H   0  0  0  0  0  0  0  0  0  0  0  0
    5.0476   -3.9605    1.8384 H   0  0  0  0  0  0  0  0  0  0  0  0
    4.7260   -1.9522    0.6582 H   0  0  0  0  0  0  0  0  0  0  0  0
   -0.5343   -0.0038    3.3745 H   0  0  0  0  0  0  0  0  0  0  0  0
    1.9573   -0.0147    3.3642 H   0  0  0  0  0  0  0  0  0  0  0  0
   -2.5959   -0.5004    0.3135 H   0  0  0  0  0  0  0  0  0  0  0  0
   -2.5923   -0.4801    2.1288 H   0  0  0  0  0  0  0  0  0  0  0  0
   -2.5490    1.0785    1.2035 H   0  0  0  0  0  0  0  0  0  0  0  0
  1  2  2  0  0  0  0
  1 15  1  0  0  0  0
  2  3  1  0  0  0  0
  3 17  2  0  0  0  0
  4  3  1  0  0  0  0
  4  5  1  0  0  0  0
  4 14  2  0  0  0  0
  5  6  1  0  0  0  0
  6  7  1  0  0  0  0
  6 12  2  0  0  0  0
  7  8  1  0  0  0  0
  8 29  1  0  0  0  0
  8 28  1  0  0  0  0
  9  8  1  0  0  0  0
  9 27  1  0  0  0  0
 10  9  1  0  0  0  0
 10 24  1  0  0  0  0
 11 10  1  0  0  0  0
 11 22  1  0  0  0  0
 13  4  2  0  0  0  0
 15 18  1  0  0  0  0
 15 16  2  0  0  0  0
 16 32  1  0  0  0  0
 17 16  1  0  0  0  0
 17 33  1  0  0  0  0
 18 35  1  0  0  0  0
 19  1  1  0  0  0  0
 20  2  1  0  0  0  0
 21 11  1  0  0  0  0
 23 11  1  0  0  0  0
 25 10  1  0  0  0  0
 26  9  1  0  0  0  0
 30  7  1  0  0  0  0
 31  5  1  0  0  0  0
 34 18  1  0  0  0  0
 36 18  1  0  0  0  0
M  END