A34
  Mrv0541 08111511043D          

 55 58  0  0  0  0            999 V2000
    0.0000    0.0000    0.0000 C   0  0  2  0  0  0  0  0  0  0  0  0
    1.5103    0.0000    0.0000 C   0  0  0  0  0  0  0  0  0  0  0  0
    2.2433    0.0000    1.1254 C   0  0  0  0  0  0  0  0  0  0  0  0
    1.6445   -0.0397    2.4680 C   0  0  0  0  0  0  0  0  0  0  0  0
    0.1760   -0.1366    2.5019 C   0  0  0  0  0  0  0  0  0  0  0  0
   -0.5606   -0.1343    1.3861 C   0  0  0  0  0  0  0  0  0  0  0  0
    2.1536    0.0235   -1.3441 C   0  0  2  0  0  0  0  0  0  0  0  0
    1.6739   -1.1382   -2.1899 C   0  0  1  0  0  0  0  0  0  0  0  0
    0.1589   -1.1542   -2.2885 C   0  0  2  0  0  0  0  0  0  0  0  0
   -0.4897   -1.2170   -0.8714 C   0  0  2  0  0  0  0  0  0  0  0  0
   -2.0518   -1.2977   -0.9938 C   0  0  2  0  0  0  0  0  0  0  0  0
   -2.5123   -2.4149   -1.9369 C   0  0  1  0  0  0  0  0  0  0  0  0
   -1.8464   -2.3334   -3.2993 C   0  0  1  0  0  0  0  0  0  0  0  0
   -0.3180   -2.3576   -3.0730 C   0  0  1  0  0  0  0  0  0  0  0  0
    0.2595   -2.6293   -4.4529 C   0  0  1  0  0  0  0  0  0  0  0  0
   -0.7216   -3.6395   -5.0755 C   0  0  2  0  0  0  0  0  0  0  0  0
   -2.0344   -3.5842   -4.2156 C   0  0  1  0  0  0  0  0  0  0  0  0
    2.3301    0.0005    3.4987 O   0  0  0  0  0  0  0  0  0  0  0  0
   -0.4688    1.3535   -0.5404 C   0  0  0  0  0  0  0  0  0  0  0  0
   -0.0943   -2.3952   -0.2304 F   0  0  0  0  0  0  0  0  0  0  0  0
   -2.5468   -0.0261   -1.3763 O   0  0  0  0  0  0  0  0  0  0  0  0
   -2.3259   -1.1138   -4.0697 C   0  0  0  0  0  0  0  0  0  0  0  0
   -0.2124   -4.9558   -5.0794 O   0  0  0  0  0  0  0  0  0  0  0  0
   -2.1198   -4.7304   -3.3826 O   0  0  0  0  0  0  0  0  0  0  0  0
   -3.2785   -3.4872   -5.0835 C   0  0  0  0  0  0  0  0  0  0  0  0
   -3.2829   -2.9425   -6.1912 O   0  0  0  0  0  0  0  0  0  0  0  0
   -4.5262   -4.1265   -4.5218 C   0  0  2  0  0  0  0  0  0  0  0  0
   -5.7048   -3.6055   -5.0918 O   0  0  0  0  0  0  0  0  0  0  0  0
   -0.2789   -0.2131    3.5024 H   0  0  0  0  0  0  0  0  0  0  0  0
    0.1742    2.1657   -0.1222 H   0  0  0  0  0  0  0  0  0  0  0  0
   -0.4117    1.3862   -1.6528 H   0  0  0  0  0  0  0  0  0  0  0  0
   -1.5270    1.5509   -0.2396 H   0  0  0  0  0  0  0  0  0  0  0  0
   -1.6607   -0.1977    1.4312 H   0  0  0  0  0  0  0  0  0  0  0  0
    3.3453    0.0204    1.0977 H   0  0  0  0  0  0  0  0  0  0  0  0
    3.2709   -0.0228   -1.2483 H   0  0  0  0  0  0  0  0  0  0  0  0
    1.8983    0.9948   -1.8499 H   0  0  0  0  0  0  0  0  0  0  0  0
    2.1106   -1.0594   -3.2197 H   0  0  0  0  0  0  0  0  0  0  0  0
    2.0276   -2.1035   -1.7397 H   0  0  0  0  0  0  0  0  0  0  0  0
   -0.1873   -0.2079   -2.7841 H   0  0  0  0  0  0  0  0  0  0  0  0
   -0.0944   -3.2730   -2.4431 H   0  0  0  0  0  0  0  0  0  0  0  0
    0.3014   -1.6980   -5.0688 H   0  0  0  0  0  0  0  0  0  0  0  0
    1.2900   -3.0575   -4.3943 H   0  0  0  0  0  0  0  0  0  0  0  0
    0.1559   -5.1296   -4.2018 H   0  0  0  0  0  0  0  0  0  0  0  0
   -0.9407   -3.4072   -6.1526 H   0  0  0  0  0  0  0  0  0  0  0  0
   -1.9155   -1.1202   -5.1098 H   0  0  0  0  0  0  0  0  0  0  0  0
   -2.0101   -0.1671   -3.5694 H   0  0  0  0  0  0  0  0  0  0  0  0
   -3.4423   -1.1190   -4.1333 H   0  0  0  0  0  0  0  0  0  0  0  0
   -2.2604   -3.4007   -1.4604 H   0  0  0  0  0  0  0  0  0  0  0  0
   -3.6265   -2.3630   -2.0496 H   0  0  0  0  0  0  0  0  0  0  0  0
   -3.4312   -0.1614   -1.7409 H   0  0  0  0  0  0  0  0  0  0  0  0
   -2.4563   -1.5359    0.0346 H   0  0  0  0  0  0  0  0  0  0  0  0
   -2.0557   -5.5047   -3.9615 H   0  0  0  0  0  0  0  0  0  0  0  0
   -4.6088   -3.9261   -3.4188 H   0  0  0  0  0  0  0  0  0  0  0  0
   -4.4640   -5.2367   -4.6935 H   0  0  0  0  0  0  0  0  0  0  0  0
   -5.5669   -3.5429   -6.0478 H   0  0  0  0  0  0  0  0  0  0  0  0
  1 19  1  6  0  0  0
  1  2  1  0  0  0  0
  1  6  1  0  0  0  0
  2  3  2  0  0  0  0
  3  4  1  0  0  0  0
  4  5  1  0  0  0  0
  4 18  2  0  0  0  0
  5 29  1  0  0  0  0
  6  5  2  0  0  0  0
  6 33  1  0  0  0  0
  7  2  1  0  0  0  0
  7 35  1  0  0  0  0
  8  7  1  0  0  0  0
  8 38  1  0  0  0  0
  9  8  1  0  0  0  0
  9 39  1  6  0  0  0
  9 10  1  0  0  0  0
 10  1  1  0  0  0  0
 10 20  1  1  0  0  0
 11 10  1  0  0  0  0
 11 51  1  1  0  0  0
 12 11  1  0  0  0  0
 12 48  1  0  0  0  0
 13 12  1  0  0  0  0
 13 22  1  6  0  0  0
 13 14  1  0  0  0  0
 14  9  1  0  0  0  0
 14 40  1  1  0  0  0
 15 14  1  0  0  0  0
 15 42  1  0  0  0  0
 16 15  1  0  0  0  0
 16 44  1  6  0  0  0
 16 17  1  0  0  0  0
 17 13  1  0  0  0  0
 17 25  1  6  0  0  0
 17 24  1  0  0  0  0
 19 32  1  0  0  0  0
 19 30  1  0  0  0  0
 21 11  1  0  0  0  0
 22 46  1  0  0  0  0
 23 16  1  0  0  0  0
 23 43  1  0  0  0  0
 25 27  1  0  0  0  0
 26 25  2  0  0  0  0
 27 53  1  0  0  0  0
 28 27  1  0  0  0  0
 31 19  1  0  0  0  0
 34  3  1  0  0  0  0
 36  7  1  0  0  0  0
 37  8  1  0  0  0  0
 41 15  1  0  0  0  0
 45 22  1  0  0  0  0
 47 22  1  0  0  0  0
 49 12  1  0  0  0  0
 50 21  1  0  0  0  0
 52 24  1  0  0  0  0
 54 27  1  0  0  0  0
 55 28  1  0  0  0  0
M  END