A35
  Mrv0541 08111511043D          

 61 63  0  0  0  0            999 V2000
    0.0000    0.0000    0.0000 O   0  0  0  0  0  0  0  0  0  0  0  0
    1.3666    0.0000    0.0000 C   0  0  0  0  0  0  0  0  0  0  0  0
    1.9129    0.0000    1.1025 O   0  0  0  0  0  0  0  0  0  0  0  0
    1.9618   -0.0317   -1.4102 C   0  0  1  0  0  0  0  0  0  0  0  0
    1.6839    1.2001   -2.1222 N   0  0  0  0  0  0  0  0  0  0  0  0
    0.4541    1.2141   -2.8823 C   0  0  2  0  0  0  0  0  0  0  0  0
    0.5070    0.5773   -4.2434 C   0  0  0  0  0  0  0  0  0  0  0  0
   -0.6545   -0.0362   -4.7303 C   0  0  0  0  0  0  0  0  0  0  0  0
   -0.6731   -0.6053   -6.0001 C   0  0  0  0  0  0  0  0  0  0  0  0
    0.4726   -0.5709   -6.8063 C   0  0  0  0  0  0  0  0  0  0  0  0
    0.4537   -1.1438   -8.1543 C   0  0  0  0  0  0  0  0  0  0  0  0
    0.2102   -2.5077   -8.3917 C   0  0  0  0  0  0  0  0  0  0  0  0
    0.1569   -2.9933   -9.7064 C   0  0  0  0  0  0  0  0  0  0  0  0
    0.3610   -2.1325  -10.7812 C   0  0  0  0  0  0  0  0  0  0  0  0
    0.0326   -3.4525   -7.2958 C   0  0  0  0  0  0  0  0  0  0  0  0
   -0.9346   -4.4181   -7.1903 N   0  0  0  0  0  0  0  0  0  0  0  0
   -0.6292   -5.0174   -6.0353 N   0  0  0  0  0  0  0  0  0  0  0  0
    0.8918   -3.5435   -6.1457 N   0  0  0  0  0  0  0  0  0  0  0  0
    0.4549   -4.4900   -5.4261 N   0  0  0  0  0  0  0  0  0  0  0  0
    0.6711   -0.2931   -9.2490 C   0  0  0  0  0  0  0  0  0  0  0  0
    0.6248   -0.7820  -10.5513 C   0  0  0  0  0  0  0  0  0  0  0  0
    1.6488    0.6128   -5.0477 C   0  0  0  0  0  0  0  0  0  0  0  0
    1.6321    0.0462   -6.3210 C   0  0  0  0  0  0  0  0  0  0  0  0
    2.4600    2.3499   -1.9586 C   0  0  0  0  0  0  0  0  0  0  0  0
    3.3713    2.3841   -1.1113 O   0  0  0  0  0  0  0  0  0  0  0  0
    2.1701    3.5518   -2.8413 C   0  0  1  0  0  0  0  0  0  0  0  0
    3.3262    4.5296   -2.8120 C   0  0  1  0  0  0  0  0  0  0  0  0
    3.0238    5.7485   -3.6571 C   0  0  2  0  0  0  0  0  0  0  0  0
    4.1719    6.7244   -3.6402 C   0  0  0  0  0  0  0  0  0  0  0  0
    3.4458   -0.4541   -1.3184 C   0  0  1  0  0  0  0  0  0  0  0  0
    3.5239   -1.8840   -0.8188 C   0  0  0  0  0  0  0  0  0  0  0  0
    4.1371   -0.3412   -2.6601 C   0  0  0  0  0  0  0  0  0  0  0  0
    0.3173   -2.5197  -11.8098 H   0  0  0  0  0  0  0  0  0  0  0  0
   -0.0433   -4.0605   -9.8877 H   0  0  0  0  0  0  0  0  0  0  0  0
   -1.1643   -5.7793   -5.6688 H   0  0  0  0  0  0  0  0  0  0  0  0
    0.7944   -0.1016  -11.3992 H   0  0  0  0  0  0  0  0  0  0  0  0
    0.8746    0.7733   -9.0667 H   0  0  0  0  0  0  0  0  0  0  0  0
   -1.5904   -1.0842   -6.3745 H   0  0  0  0  0  0  0  0  0  0  0  0
   -1.5596   -0.0718   -4.1050 H   0  0  0  0  0  0  0  0  0  0  0  0
    2.5376    0.0733   -6.9457 H   0  0  0  0  0  0  0  0  0  0  0  0
    2.5761    1.0781   -4.6776 H   0  0  0  0  0  0  0  0  0  0  0  0
    0.1021    2.2785   -3.0169 H   0  0  0  0  0  0  0  0  0  0  0  0
   -0.3370    0.6855   -2.2653 H   0  0  0  0  0  0  0  0  0  0  0  0
    5.0986    6.2499   -4.0446 H   0  0  0  0  0  0  0  0  0  0  0  0
    4.3815    7.0679   -2.5983 H   0  0  0  0  0  0  0  0  0  0  0  0
    3.9305    7.6176   -4.2653 H   0  0  0  0  0  0  0  0  0  0  0  0
    2.0969    6.2510   -3.2727 H   0  0  0  0  0  0  0  0  0  0  0  0
    2.8139    5.4318   -4.7131 H   0  0  0  0  0  0  0  0  0  0  0  0
    3.5304    4.8360   -1.7516 H   0  0  0  0  0  0  0  0  0  0  0  0
    4.2541    4.0234   -3.1873 H   0  0  0  0  0  0  0  0  0  0  0  0
    1.9820    3.2211   -3.8974 H   0  0  0  0  0  0  0  0  0  0  0  0
    1.2410    4.0543   -2.4604 H   0  0  0  0  0  0  0  0  0  0  0  0
    3.0236   -1.9820    0.1752 H   0  0  0  0  0  0  0  0  0  0  0  0
    3.0392   -2.5856   -1.5398 H   0  0  0  0  0  0  0  0  0  0  0  0
    4.5942   -2.1814   -0.7030 H   0  0  0  0  0  0  0  0  0  0  0  0
    4.2924    0.7312   -2.9326 H   0  0  0  0  0  0  0  0  0  0  0  0
    5.1376   -0.8359   -2.6123 H   0  0  0  0  0  0  0  0  0  0  0  0
    3.5349   -0.8326   -3.4625 H   0  0  0  0  0  0  0  0  0  0  0  0
    3.9589    0.2228   -0.5762 H   0  0  0  0  0  0  0  0  0  0  0  0
    1.4127   -0.8621   -1.9592 H   0  0  0  0  0  0  0  0  0  0  0  0
   -0.3283    0.0196    0.9135 H   0  0  0  0  0  0  0  0  0  0  0  0
  1 61  1  0  0  0  0
  2  1  1  0  0  0  0
  2  3  2  0  0  0  0
  4  2  1  0  0  0  0
  4 60  1  6  0  0  0
  4 30  1  0  0  0  0
  5  4  1  0  0  0  0
  5 24  1  0  0  0  0
  6  5  1  0  0  0  0
  6 43  1  0  0  0  0
  7  6  1  0  0  0  0
  8  7  1  0  0  0  0
  8 39  1  0  0  0  0
  9  8  2  0  0  0  0
 10  9  1  0  0  0  0
 10 23  2  0  0  0  0
 11 10  1  0  0  0  0
 12 11  1  0  0  0  0
 12 15  1  0  0  0  0
 13 12  2  0  0  0  0
 14 13  1  0  0  0  0
 14 21  2  0  0  0  0
 15 16  2  0  0  0  0
 15 18  1  0  0  0  0
 16 17  1  0  0  0  0
 17 35  1  0  0  0  0
 17 19  1  0  0  0  0
 18 19  2  0  0  0  0
 20 11  2  0  0  0  0
 20 37  1  0  0  0  0
 21 20  1  0  0  0  0
 22  7  2  0  0  0  0
 22 41  1  0  0  0  0
 23 22  1  0  0  0  0
 24 25  2  0  0  0  0
 26 24  1  0  0  0  0
 26 27  1  0  0  0  0
 26 52  1  0  0  0  0
 27 49  1  0  0  0  0
 28 27  1  0  0  0  0
 28 29  1  0  0  0  0
 28 47  1  0  0  0  0
 29 45  1  0  0  0  0
 30 31  1  0  0  0  0
 30 59  1  0  0  0  0
 31 55  1  0  0  0  0
 31 53  1  0  0  0  0
 32 30  1  0  0  0  0
 32 57  1  0  0  0  0
 33 14  1  0  0  0  0
 34 13  1  0  0  0  0
 36 21  1  0  0  0  0
 38  9  1  0  0  0  0
 40 23  1  0  0  0  0
 42  6  1  0  0  0  0
 44 29  1  0  0  0  0
 46 29  1  0  0  0  0
 48 28  1  0  0  0  0
 50 27  1  0  0  0  0
 51 26  1  0  0  0  0
 54 31  1  0  0  0  0
 56 32  1  0  0  0  0
 58 32  1  0  0  0  0
M  END