A36
  Mrv0541 08111511043D          

 39 41  0  0  0  0            999 V2000
    0.0000    0.0000    0.0000 O   0  0  0  0  0  0  0  0  0  0  0  0
    1.3982    0.0000    0.0000 C   0  0  0  0  0  0  0  0  0  0  0  0
    1.8173    0.0000    1.1561 O   0  0  0  0  0  0  0  0  0  0  0  0
    2.1431   -0.0236   -1.2568 C   0  0  0  0  0  0  0  0  0  0  0  0
    3.6346   -0.0255   -1.1052 C   0  0  2  0  0  0  0  0  0  0  0  0
    4.3322    1.0065   -1.9849 C   0  0  2  0  0  0  0  0  0  0  0  0
    4.3016    2.3961   -1.4100 C   0  0  0  0  0  0  0  0  0  0  0  0
    4.3463    2.6250   -0.1977 O   0  0  0  0  0  0  0  0  0  0  0  0
    4.2513    3.4953   -2.4236 C   0  0  0  0  0  0  0  0  0  0  0  0
    4.1889   -1.4016   -1.3365 C   0  0  0  0  0  0  0  0  0  0  0  0
    4.4343   -2.2316   -0.2349 C   0  0  0  0  0  0  0  0  0  0  0  0
    4.9622   -3.5081   -0.4214 C   0  0  0  0  0  0  0  0  0  0  0  0
    5.2500   -3.9671   -1.7066 C   0  0  0  0  0  0  0  0  0  0  0  0
    4.4742   -1.8701   -2.6236 C   0  0  0  0  0  0  0  0  0  0  0  0
    5.0038   -3.1464   -2.8068 C   0  0  0  0  0  0  0  0  0  0  0  0
    1.4482   -0.0789   -2.4330 C   0  0  0  0  0  0  0  0  0  0  0  0
    2.1437   -0.1196   -3.6158 O   0  0  0  0  0  0  0  0  0  0  0  0
   -0.6677   -0.0210   -1.1986 C   0  0  0  0  0  0  0  0  0  0  0  0
   -0.0059   -0.0573   -2.4407 C   0  0  0  0  0  0  0  0  0  0  0  0
   -0.7894   -0.0538   -3.6097 C   0  0  0  0  0  0  0  0  0  0  0  0
   -2.1727   -0.0328   -3.5323 C   0  0  0  0  0  0  0  0  0  0  0  0
   -2.0755   -0.0016   -1.1148 C   0  0  0  0  0  0  0  0  0  0  0  0
   -2.8153   -0.0105   -2.2853 C   0  0  0  0  0  0  0  0  0  0  0  0
    5.0423    3.3388   -3.1961 H   0  0  0  0  0  0  0  0  0  0  0  0
    4.4045    4.4897   -1.9387 H   0  0  0  0  0  0  0  0  0  0  0  0
    3.2537    3.4897   -2.9274 H   0  0  0  0  0  0  0  0  0  0  0  0
    3.8930    1.0174   -3.0158 H   0  0  0  0  0  0  0  0  0  0  0  0
    5.4151    0.7173   -2.0857 H   0  0  0  0  0  0  0  0  0  0  0  0
    5.6693   -4.9731   -1.8518 H   0  0  0  0  0  0  0  0  0  0  0  0
    5.1523   -4.1531    0.4491 H   0  0  0  0  0  0  0  0  0  0  0  0
    4.2054   -1.8725    0.7813 H   0  0  0  0  0  0  0  0  0  0  0  0
    5.2278   -3.5053   -3.8218 H   0  0  0  0  0  0  0  0  0  0  0  0
    4.2682   -1.2268   -3.4935 H   0  0  0  0  0  0  0  0  0  0  0  0
    3.8633    0.2618   -0.0284 H   0  0  0  0  0  0  0  0  0  0  0  0
    1.5596   -0.4622   -4.3082 H   0  0  0  0  0  0  0  0  0  0  0  0
   -2.7747   -0.0309   -4.4533 H   0  0  0  0  0  0  0  0  0  0  0  0
   -0.3108   -0.0551   -4.6008 H   0  0  0  0  0  0  0  0  0  0  0  0
   -3.9153    0.0034   -2.2391 H   0  0  0  0  0  0  0  0  0  0  0  0
   -2.5532    0.0220   -0.1242 H   0  0  0  0  0  0  0  0  0  0  0  0
  2  1  1  0  0  0  0
  2  3  2  0  0  0  0
  4  2  1  0  0  0  0
  4  5  1  0  0  0  0
  5 34  1  1  0  0  0
  6  5  1  0  0  0  0
  6  7  1  0  0  0  0
  7  8  2  0  0  0  0
  9  7  1  0  0  0  0
  9 25  1  0  0  0  0
 10  5  1  0  0  0  0
 10 11  1  0  0  0  0
 11 31  1  0  0  0  0
 12 11  2  0  0  0  0
 12 30  1  0  0  0  0
 13 12  1  0  0  0  0
 14 10  2  0  0  0  0
 15 13  2  0  0  0  0
 15 14  1  0  0  0  0
 16  4  2  0  0  0  0
 17 16  1  0  0  0  0
 18  1  1  0  0  0  0
 18 22  1  0  0  0  0
 19 16  1  0  0  0  0
 19 18  2  0  0  0  0
 20 19  1  0  0  0  0
 20 21  2  0  0  0  0
 21 23  1  0  0  0  0
 22 39  1  0  0  0  0
 23 22  2  0  0  0  0
 23 38  1  0  0  0  0
 24  9  1  0  0  0  0
 26  9  1  0  0  0  0
 27  6  1  0  0  0  0
 28  6  1  0  0  0  0
 29 13  1  0  0  0  0
 32 15  1  0  0  0  0
 33 14  1  0  0  0  0
 35 17  1  0  0  0  0
 36 21  1  0  0  0  0
 37 20  1  0  0  0  0
M  END