A4
  Mrv0541 08111511043D          

 15 15  0  0  0  0            999 V2000
    0.0000    0.0000    0.0000 O   0  0  0  0  0  0  0  0  0  0  0  0
    1.3667    0.0000    0.0000 C   0  0  0  0  0  0  0  0  0  0  0  0
    1.9092    0.0000    1.1113 O   0  0  0  0  0  0  0  0  0  0  0  0
    1.9947    0.0000   -1.3252 C   0  0  0  0  0  0  0  0  0  0  0  0
    3.3943    0.0007   -1.4046 C   0  0  0  0  0  0  0  0  0  0  0  0
    4.0155    0.0007   -2.6518 C   0  0  0  0  0  0  0  0  0  0  0  0
    3.2468    0.0002   -3.8165 C   0  0  0  0  0  0  0  0  0  0  0  0
    1.2235   -0.0006   -2.4939 C   0  0  0  0  0  0  0  0  0  0  0  0
    1.8537   -0.0005   -3.7372 C   0  0  0  0  0  0  0  0  0  0  0  0
    3.7407    0.0002   -4.8000 H   0  0  0  0  0  0  0  0  0  0  0  0
    5.1137    0.0012   -2.7158 H   0  0  0  0  0  0  0  0  0  0  0  0
    3.9890    0.0012   -0.4765 H   0  0  0  0  0  0  0  0  0  0  0  0
    1.2494   -0.0010   -4.6564 H   0  0  0  0  0  0  0  0  0  0  0  0
    0.1241   -0.0011   -2.4217 H   0  0  0  0  0  0  0  0  0  0  0  0
   -0.3177    0.0000    0.9182 H   0  0  0  0  0  0  0  0  0  0  0  0
  1  2  1  0  0  0  0
  1 15  1  0  0  0  0
  2  3  2  0  0  0  0
  4  2  1  0  0  0  0
  5  4  1  0  0  0  0
  5 12  1  0  0  0  0
  6  5  2  0  0  0  0
  7  6  1  0  0  0  0
  7  9  2  0  0  0  0
  8  4  2  0  0  0  0
  8 14  1  0  0  0  0
  9  8  1  0  0  0  0
 10  7  1  0  0  0  0
 11  6  1  0  0  0  0
 13  9  1  0  0  0  0
M  END