A7
  Mrv0541 08111511043D          

 29 31  0  0  0  0            999 V2000
    0.0000    0.0000    0.0000 C   0  0  0  0  0  0  0  0  0  0  0  0
    1.4162    0.0000    0.0000 C   0  0  0  0  0  0  0  0  0  0  0  0
    2.1662    0.0000    1.2067 C   0  0  0  0  0  0  0  0  0  0  0  0
    1.4994    0.0171    2.4701 C   0  0  0  0  0  0  0  0  0  0  0  0
    3.5811   -0.0386    1.1351 N   0  0  0  0  0  0  0  0  0  0  0  0
    4.3821    0.0398    2.3681 C   0  0  2  0  0  0  0  0  0  0  0  0
    4.4675    1.4298    2.9713 C   0  0  0  0  0  0  0  0  0  0  0  0
    2.1100    0.0078   -1.2951 C   0  0  0  0  0  0  0  0  0  0  0  0
    3.5874    0.0138   -1.1599 C   0  0  0  0  0  0  0  0  0  0  0  0
    4.3820    0.0065   -2.4160 C   0  0  0  0  0  0  0  0  0  0  0  0
    4.7094    1.2505   -2.8581 O   0  0  0  0  0  0  0  0  0  0  0  0
    4.7521   -0.9611   -3.0780 O   0  0  0  0  0  0  0  0  0  0  0  0
    4.2370    0.0142   -0.0106 N   0  0  0  0  0  0  0  0  0  0  0  0
    1.5341    0.0145   -2.3886 O   0  0  0  0  0  0  0  0  0  0  0  0
   -0.6188    0.0047    1.2228 C   0  0  0  0  0  0  0  0  0  0  0  0
    0.1268    0.0146    2.4368 C   0  0  0  0  0  0  0  0  0  0  0  0
   -0.7492    0.0263    3.5106 O   0  0  0  0  0  0  0  0  0  0  0  0
   -1.9788    0.0072    1.5205 O   0  0  0  0  0  0  0  0  0  0  0  0
   -2.0916    0.0192    2.9611 C   0  0  2  0  0  0  0  0  0  0  0  0
   -0.5480   -0.0037   -0.9551 H   0  0  0  0  0  0  0  0  0  0  0  0
    2.0374    0.0380    3.4263 H   0  0  0  0  0  0  0  0  0  0  0  0
    3.4559    1.8344    3.2163 H   0  0  0  0  0  0  0  0  0  0  0  0
    5.0660    1.3692    3.9129 H   0  0  0  0  0  0  0  0  0  0  0  0
    4.9725    2.1398    2.2727 H   0  0  0  0  0  0  0  0  0  0  0  0
    5.4265   -0.3258    2.1426 H   0  0  0  0  0  0  0  0  0  0  0  0
    3.9230   -0.6823    3.1009 H   0  0  0  0  0  0  0  0  0  0  0  0
    5.1779    1.1754   -3.7069 H   0  0  0  0  0  0  0  0  0  0  0  0
   -2.6056    0.9612    3.2737 H   0  0  0  0  0  0  0  0  0  0  0  0
   -2.6025   -0.9190    3.2898 H   0  0  0  0  0  0  0  0  0  0  0  0
  1  2  2  0  0  0  0
  1 15  1  0  0  0  0
  2  3  1  0  0  0  0
  3  4  2  0  0  0  0
  4 21  1  0  0  0  0
  5  3  1  0  0  0  0
  5  6  1  0  0  0  0
  6  7  1  0  0  0  0
  6 26  1  0  0  0  0
  7 22  1  0  0  0  0
  7 23  1  0  0  0  0
  8  2  1  0  0  0  0
  8  9  1  0  0  0  0
  9 13  2  0  0  0  0
 10  9  1  0  0  0  0
 11 10  1  0  0  0  0
 12 10  2  0  0  0  0
 13  5  1  0  0  0  0
 14  8  2  0  0  0  0
 15 18  1  0  0  0  0
 15 16  2  0  0  0  0
 16  4  1  0  0  0  0
 16 17  1  0  0  0  0
 18 19  1  0  0  0  0
 19 17  1  0  0  0  0
 19 28  1  0  0  0  0
 19 29  1  0  0  0  0
 20  1  1  0  0  0  0
 24  7  1  0  0  0  0
 25  6  1  0  0  0  0
 27 11  1  0  0  0  0
M  END