A9
  Mrv0541 08111511043D          

 47 50  0  0  0  0            999 V2000
    0.0000    0.0000    0.0000 Cl  0  0  0  0  0  0  0  0  0  0  0  0
    1.6960    0.0000    0.0000 C   0  0  0  0  0  0  0  0  0  0  0  0
    2.4157    0.0000    1.2061 C   0  0  0  0  0  0  0  0  0  0  0  0
    1.7278   -0.0075    2.4925 C   0  0  0  0  0  0  0  0  0  0  0  0
    1.3916   -1.1226    3.1745 N   0  0  0  0  0  0  0  0  0  0  0  0
    0.7618   -0.7812    4.2826 O   0  0  0  0  0  0  0  0  0  0  0  0
    1.2648    1.1606    3.2506 C   0  0  0  0  0  0  0  0  0  0  0  0
    1.3663    2.5879    2.9373 C   0  0  0  0  0  0  0  0  0  0  0  0
    0.5775    3.4251    3.4223 O   0  0  0  0  0  0  0  0  0  0  0  0
    2.3886    2.9863    2.0832 N   0  0  0  0  0  0  0  0  0  0  0  0
    2.5899    4.3444    1.7570 C   0  0  1  0  0  0  0  0  0  0  0  0
    4.0115    4.9884    2.0222 C   0  0  1  0  0  0  0  0  0  0  0  0
    5.3970    3.9274    2.3917 S   0  0  0  0  0  0  0  0  0  0  0  0
    6.2504    4.2203    0.8089 C   0  0  1  0  0  0  0  0  0  0  0  0
    7.5992    4.8232    1.1197 C   0  0  0  0  0  0  0  0  0  0  0  0
    6.4193    2.8933    0.1058 C   0  0  0  0  0  0  0  0  0  0  0  0
    4.0736    5.4005    0.6057 N   0  0  1  0  0  0  0  0  0  0  0  0
    5.3439    5.1656   -0.0407 C   0  0  1  0  0  0  0  0  0  0  0  0
    6.0785    6.4619   -0.3604 C   0  0  0  0  0  0  0  0  0  0  0  0
    6.0961    7.4187    0.6025 O   0  0  0  0  0  0  0  0  0  0  0  0
    6.6624    6.7118   -1.4183 O   0  0  0  0  0  0  0  0  0  0  0  0
    2.8723    4.6802    0.2515 C   0  0  0  0  0  0  0  0  0  0  0  0
    2.3298    4.4895   -0.8220 O   0  0  0  0  0  0  0  0  0  0  0  0
    0.6466    0.6199    4.3729 C   0  0  0  0  0  0  0  0  0  0  0  0
   -0.0439    1.1685    5.5374 C   0  0  0  0  0  0  0  0  0  0  0  0
    3.8160   -0.0172    1.1723 C   0  0  0  0  0  0  0  0  0  0  0  0
    4.4883   -0.0204   -0.0477 C   0  0  0  0  0  0  0  0  0  0  0  0
    2.3764   -0.0018   -1.2237 C   0  0  0  0  0  0  0  0  0  0  0  0
    3.7690   -0.0128   -1.2432 C   0  0  0  0  0  0  0  0  0  0  0  0
    7.4857    5.7752    1.6959 H   0  0  0  0  0  0  0  0  0  0  0  0
    8.2055    4.1102    1.7306 H   0  0  0  0  0  0  0  0  0  0  0  0
    8.1548    5.0385    0.1723 H   0  0  0  0  0  0  0  0  0  0  0  0
    7.0131    2.1935    0.7440 H   0  0  0  0  0  0  0  0  0  0  0  0
    5.4291    2.4201   -0.1079 H   0  0  0  0  0  0  0  0  0  0  0  0
    6.9644    3.0366   -0.8604 H   0  0  0  0  0  0  0  0  0  0  0  0
    6.5575    8.2061    0.2649 H   0  0  0  0  0  0  0  0  0  0  0  0
    5.1531    4.6870   -1.0536 H   0  0  0  0  0  0  0  0  0  0  0  0
    3.9800    5.8503    2.7271 H   0  0  0  0  0  0  0  0  0  0  0  0
    1.7597    4.9812    2.1740 H   0  0  0  0  0  0  0  0  0  0  0  0
    3.0796    2.3261    1.8024 H   0  0  0  0  0  0  0  0  0  0  0  0
    0.5750    1.0181    6.4586 H   0  0  0  0  0  0  0  0  0  0  0  0
   -0.2195    2.2650    5.3815 H   0  0  0  0  0  0  0  0  0  0  0  0
   -1.0266    0.6525    5.6844 H   0  0  0  0  0  0  0  0  0  0  0  0
    5.5887   -0.0355   -0.0650 H   0  0  0  0  0  0  0  0  0  0  0  0
    4.3822   -0.0376    2.1165 H   0  0  0  0  0  0  0  0  0  0  0  0
    4.3005   -0.0195   -2.2071 H   0  0  0  0  0  0  0  0  0  0  0  0
    1.8094    0.0042   -2.1679 H   0  0  0  0  0  0  0  0  0  0  0  0
  1  2  1  0  0  0  0
  2  3  1  0  0  0  0
  3  4  1  0  0  0  0
  4  5  2  0  0  0  0
  4  7  1  0  0  0  0
  5  6  1  0  0  0  0
  6 24  1  0  0  0  0
  7 24  2  0  0  0  0
  8  7  1  0  0  0  0
  8  9  2  0  0  0  0
 10  8  1  0  0  0  0
 11 10  1  0  0  0  0
 11 12  1  0  0  0  0
 11 39  1  1  0  0  0
 12 13  1  0  0  0  0
 12 38  1  1  0  0  0
 14 13  1  0  0  0  0
 14 15  1  0  0  0  0
 15 30  1  0  0  0  0
 15 31  1  0  0  0  0
 16 14  1  0  0  0  0
 16 33  1  0  0  0  0
 17 12  1  0  0  0  0
 18 14  1  0  0  0  0
 18 17  1  0  0  0  0
 18 37  1  6  0  0  0
 19 18  1  0  0  0  0
 19 20  1  0  0  0  0
 21 19  2  0  0  0  0
 22 11  1  0  0  0  0
 22 17  1  0  0  0  0
 23 22  2  0  0  0  0
 24 25  1  0  0  0  0
 25 43  1  0  0  0  0
 25 41  1  0  0  0  0
 26  3  2  0  0  0  0
 26 45  1  0  0  0  0
 27 26  1  0  0  0  0
 28  2  2  0  0  0  0
 29 27  2  0  0  0  0
 29 28  1  0  0  0  0
 32 15  1  0  0  0  0
 34 16  1  0  0  0  0
 35 16  1  0  0  0  0
 36 20  1  0  0  0  0
 40 10  1  0  0  0  0
 42 25  1  0  0  0  0
 44 27  1  0  0  0  0
 46 29  1  0  0  0  0
 47 28  1  0  0  0  0
M  END