B1
  Mrv0541 08111511043D          

 34 35  0  0  0  0            999 V2000
    0.0000    0.0000    0.0000 O   0  0  0  0  0  0  0  0  0  0  0  0
    1.2338    0.0000    0.0000 C   0  0  0  0  0  0  0  0  0  0  0  0
    2.0642    0.0000    1.1897 N   0  0  1  0  0  0  0  0  0  0  0  0
    3.4196    0.1485    0.8015 N   0  0  1  0  0  0  0  0  0  0  0  0
    4.3506   -0.7191    1.5258 C   0  0  0  0  0  0  0  0  0  0  0  0
    1.6135    0.6991    2.3550 C   0  0  0  0  0  0  0  0  0  0  0  0
    0.3239    0.3997    2.8513 C   0  0  0  0  0  0  0  0  0  0  0  0
   -0.1284    1.0016    4.0210 C   0  0  0  0  0  0  0  0  0  0  0  0
    0.6778    1.8998    4.7186 C   0  0  0  0  0  0  0  0  0  0  0  0
    2.4177    1.6191    3.0580 C   0  0  0  0  0  0  0  0  0  0  0  0
    1.9464    2.2041    4.2310 C   0  0  0  0  0  0  0  0  0  0  0  0
    2.1828   -0.0773   -1.1650 C   0  0  0  0  0  0  0  0  0  0  0  0
    1.8137   -0.0815   -2.5181 N   0  0  1  0  0  0  0  0  0  0  0  0
    2.1086   -1.3179   -3.2148 C   0  0  0  0  0  0  0  0  0  0  0  0
    0.4879    0.4314   -2.7955 C   0  0  0  0  0  0  0  0  0  0  0  0
    3.4596   -0.0271   -0.6385 C   0  0  0  0  0  0  0  0  0  0  0  0
    4.7403   -0.0802   -1.3676 C   0  0  0  0  0  0  0  0  0  0  0  0
    5.3780   -0.4731    1.1503 H   0  0  0  0  0  0  0  0  0  0  0  0
    4.1568   -1.8149    1.3851 H   0  0  0  0  0  0  0  0  0  0  0  0
    4.2866   -0.4763    2.6192 H   0  0  0  0  0  0  0  0  0  0  0  0
    0.3130    2.3674    5.6441 H   0  0  0  0  0  0  0  0  0  0  0  0
   -1.1356    0.7620    4.3942 H   0  0  0  0  0  0  0  0  0  0  0  0
   -0.3345   -0.2955    2.3048 H   0  0  0  0  0  0  0  0  0  0  0  0
    2.5859    2.9186    4.7707 H   0  0  0  0  0  0  0  0  0  0  0  0
    3.4191    1.8948    2.6945 H   0  0  0  0  0  0  0  0  0  0  0  0
    3.1572   -1.6368   -2.9776 H   0  0  0  0  0  0  0  0  0  0  0  0
    2.0250   -1.1221   -4.3161 H   0  0  0  0  0  0  0  0  0  0  0  0
    1.4069   -2.1529   -2.9441 H   0  0  0  0  0  0  0  0  0  0  0  0
    0.4171    0.6196   -3.8988 H   0  0  0  0  0  0  0  0  0  0  0  0
    0.3420    1.3967   -2.2444 H   0  0  0  0  0  0  0  0  0  0  0  0
   -0.3289   -0.2770   -2.4884 H   0  0  0  0  0  0  0  0  0  0  0  0
    4.5743    0.1711   -2.4452 H   0  0  0  0  0  0  0  0  0  0  0  0
    5.1788   -1.1087   -1.3018 H   0  0  0  0  0  0  0  0  0  0  0  0
    5.4778    0.6477   -0.9448 H   0  0  0  0  0  0  0  0  0  0  0  0
  1  2  2  0  0  0  0
  2  3  1  0  0  0  0
  3  6  1  0  0  0  0
  4  3  1  0  0  0  0
  4  5  1  0  0  0  0
  5 20  1  0  0  0  0
  6  7  2  0  0  0  0
  6 10  1  0  0  0  0
  7  8  1  0  0  0  0
  8 22  1  0  0  0  0
  8  9  2  0  0  0  0
  9 21  1  0  0  0  0
 10 11  2  0  0  0  0
 11  9  1  0  0  0  0
 11 24  1  0  0  0  0
 12  2  1  0  0  0  0
 12 16  2  0  0  0  0
 13 12  1  0  0  0  0
 14 13  1  0  0  0  0
 14 26  1  0  0  0  0
 14 28  1  0  0  0  0
 15 13  1  0  0  0  0
 15 31  1  0  0  0  0
 15 30  1  0  0  0  0
 16  4  1  0  0  0  0
 17 16  1  0  0  0  0
 17 33  1  0  0  0  0
 17 34  1  0  0  0  0
 18  5  1  0  0  0  0
 19  5  1  0  0  0  0
 23  7  1  0  0  0  0
 25 10  1  0  0  0  0
 27 14  1  0  0  0  0
 29 15  1  0  0  0  0
 32 17  1  0  0  0  0
M  END