B10
  Mrv0541 08111511043D          

 56 59  0  0  0  0            999 V2000
    0.0000    0.0000    0.0000 O   0  0  0  0  0  0  0  0  0  0  0  0
    1.3792    0.0000    0.0000 C   0  0  0  0  0  0  0  0  0  0  0  0
    1.9932    0.0000    1.2576 C   0  0  0  0  0  0  0  0  0  0  0  0
    1.5023   -0.0424    2.6220 C   0  0  0  0  0  0  0  0  0  0  0  0
    2.6689   -0.0165    3.4760 C   0  0  0  0  0  0  0  0  0  0  0  0
    2.5343   -0.0611    4.8655 C   0  0  0  0  0  0  0  0  0  0  0  0
    1.2454   -0.1281    5.3933 C   0  0  0  0  0  0  0  0  0  0  0  0
    0.2340   -0.1049    3.1809 C   0  0  0  0  0  0  0  0  0  0  0  0
    0.1151   -0.1488    4.5703 C   0  0  0  0  0  0  0  0  0  0  0  0
    3.4337    0.0466    1.3358 C   0  0  0  0  0  0  0  0  0  0  0  0
    3.8323    0.1140    2.6863 N   0  0  0  0  0  0  0  0  0  0  0  0
    4.2204    0.0718    0.1790 C   0  0  0  0  0  0  0  0  0  0  0  0
    2.1746    0.0283   -1.1541 C   0  0  0  0  0  0  0  0  0  0  0  0
    3.5676    0.0603   -1.0502 C   0  0  0  0  0  0  0  0  0  0  0  0
   -0.6221   -0.2344   -1.2725 C   0  0  1  0  0  0  0  0  0  0  0  0
   -2.1107   -0.4434   -0.9635 C   0  0  2  0  0  0  0  0  0  0  0  0
   -2.5286   -1.4977   -1.8186 O   0  0  0  0  0  0  0  0  0  0  0  0
   -2.8977    0.8516   -1.2268 C   0  0  2  0  0  0  0  0  0  0  0  0
   -4.2587    0.7792   -0.7263 N   0  0  2  0  0  0  0  0  0  0  0  0
   -5.0529    1.9519   -1.0045 C   0  0  1  0  0  0  0  0  0  0  0  0
   -4.6228    3.2618   -0.3304 C   0  0  1  0  0  0  0  0  0  0  0  0
   -3.6524    3.8598   -1.2052 O   0  0  0  0  0  0  0  0  0  0  0  0
   -2.9818    4.9297   -0.6332 C   0  0  0  0  0  0  0  0  0  0  0  0
   -1.9483    4.7208    0.3103 C   0  0  0  0  0  0  0  0  0  0  0  0
   -1.7636    3.4172    0.7237 O   0  0  0  0  0  0  0  0  0  0  0  0
   -0.5436    3.1471    1.4102 C   0  0  0  0  0  0  0  0  0  0  0  0
   -1.2093    5.8110    0.7834 C   0  0  0  0  0  0  0  0  0  0  0  0
   -1.4987    7.0934    0.3176 C   0  0  0  0  0  0  0  0  0  0  0  0
   -3.2658    6.2221   -1.0829 C   0  0  0  0  0  0  0  0  0  0  0  0
   -2.5176    7.2999   -0.6098 C   0  0  0  0  0  0  0  0  0  0  0  0
    1.1175   -0.1669    6.4858 H   0  0  0  0  0  0  0  0  0  0  0  0
    3.4120   -0.0426    5.5248 H   0  0  0  0  0  0  0  0  0  0  0  0
   -0.8840   -0.2029    5.0268 H   0  0  0  0  0  0  0  0  0  0  0  0
   -0.6524   -0.1242    2.5284 H   0  0  0  0  0  0  0  0  0  0  0  0
    4.7123   -0.2194    2.9893 H   0  0  0  0  0  0  0  0  0  0  0  0
    5.3158    0.1027    0.2361 H   0  0  0  0  0  0  0  0  0  0  0  0
    4.1671    0.0780   -1.9740 H   0  0  0  0  0  0  0  0  0  0  0  0
    1.7119    0.0270   -2.1506 H   0  0  0  0  0  0  0  0  0  0  0  0
   -3.4927   -1.5259   -1.7844 H   0  0  0  0  0  0  0  0  0  0  0  0
    0.3319    3.5565    0.8513 H   0  0  0  0  0  0  0  0  0  0  0  0
   -0.5840    3.5723    2.4422 H   0  0  0  0  0  0  0  0  0  0  0  0
   -0.5011    2.0256    1.4388 H   0  0  0  0  0  0  0  0  0  0  0  0
   -0.9135    7.9475    0.6898 H   0  0  0  0  0  0  0  0  0  0  0  0
   -0.4032    5.6625    1.5155 H   0  0  0  0  0  0  0  0  0  0  0  0
   -2.7357    8.3148   -0.9722 H   0  0  0  0  0  0  0  0  0  0  0  0
   -4.0684    6.3708   -1.8200 H   0  0  0  0  0  0  0  0  0  0  0  0
   -5.4970    3.9579   -0.2407 H   0  0  0  0  0  0  0  0  0  0  0  0
   -4.1706    3.0917    0.6812 H   0  0  0  0  0  0  0  0  0  0  0  0
   -5.0646    2.1152   -2.1195 H   0  0  0  0  0  0  0  0  0  0  0  0
   -6.1042    1.7273   -0.6667 H   0  0  0  0  0  0  0  0  0  0  0  0
   -4.2452    0.5971    0.2619 H   0  0  0  0  0  0  0  0  0  0  0  0
   -2.9462    1.0224   -2.3393 H   0  0  0  0  0  0  0  0  0  0  0  0
   -2.3245    1.7144   -0.7712 H   0  0  0  0  0  0  0  0  0  0  0  0
   -2.2257   -0.7715    0.1095 H   0  0  0  0  0  0  0  0  0  0  0  0
   -0.4589    0.6565   -1.9314 H   0  0  0  0  0  0  0  0  0  0  0  0
   -0.1944   -1.1549   -1.7496 H   0  0  0  0  0  0  0  0  0  0  0  0
  1  2  1  0  0  0  0
  2  3  1  0  0  0  0
  3 10  2  0  0  0  0
  3  4  1  0  0  0  0
  4  8  2  0  0  0  0
  4  5  1  0  0  0  0
  5  6  2  0  0  0  0
  6  7  1  0  0  0  0
  6 32  1  0  0  0  0
  7 31  1  0  0  0  0
  8  9  1  0  0  0  0
  9  7  2  0  0  0  0
  9 33  1  0  0  0  0
 10 11  1  0  0  0  0
 11  5  1  0  0  0  0
 11 35  1  0  0  0  0
 12 10  1  0  0  0  0
 12 36  1  0  0  0  0
 13  2  2  0  0  0  0
 13 14  1  0  0  0  0
 14 12  2  0  0  0  0
 15  1  1  0  0  0  0
 15 16  1  0  0  0  0
 16 54  1  1  0  0  0
 17 16  1  0  0  0  0
 17 39  1  0  0  0  0
 18 16  1  0  0  0  0
 18 53  1  0  0  0  0
 18 19  1  0  0  0  0
 19 51  1  0  0  0  0
 20 19  1  0  0  0  0
 20 50  1  0  0  0  0
 20 21  1  0  0  0  0
 21 47  1  0  0  0  0
 21 48  1  0  0  0  0
 22 21  1  0  0  0  0
 22 23  1  0  0  0  0
 23 24  1  0  0  0  0
 24 25  1  0  0  0  0
 24 27  2  0  0  0  0
 25 26  1  0  0  0  0
 26 42  1  0  0  0  0
 26 41  1  0  0  0  0
 27 44  1  0  0  0  0
 28 27  1  0  0  0  0
 28 43  1  0  0  0  0
 29 23  2  0  0  0  0
 29 30  1  0  0  0  0
 30 28  2  0  0  0  0
 34  8  1  0  0  0  0
 37 14  1  0  0  0  0
 38 13  1  0  0  0  0
 40 26  1  0  0  0  0
 45 30  1  0  0  0  0
 46 29  1  0  0  0  0
 49 20  1  0  0  0  0
 52 18  1  0  0  0  0
 55 15  1  0  0  0  0
 56 15  1  0  0  0  0
M  END