B14
  Mrv0541 08111511043D          

 45 47  0  0  0  0            999 V2000
    0.0000    0.0000    0.0000 O   0  0  0  0  0  0  0  0  0  0  0  0
    1.4593    0.0000    0.0000 C   0  0  1  0  0  0  0  0  0  0  0  0
    1.9127    0.0000    1.4644 C   0  0  1  0  0  0  0  0  0  0  0  0
    1.4799    1.2485    2.1970 C   0  0  1  0  0  0  0  0  0  0  0  0
    1.8504    1.2094    3.6766 C   0  0  1  0  0  0  0  0  0  0  0  0
    3.2752    1.0834    3.9559 N   0  0  2  0  0  0  0  0  0  0  0  0
    3.5315    0.8731    5.3641 C   0  0  0  0  0  0  0  0  0  0  0  0
    4.0717    2.1511    3.3954 C   0  0  0  0  0  0  0  0  0  0  0  0
    1.8499   -1.2931   -0.6857 C   0  0  0  0  0  0  0  0  0  0  0  0
    3.0982   -1.8358   -0.9326 C   0  0  0  0  0  0  0  0  0  0  0  0
    3.1770   -3.0703   -1.5908 C   0  0  0  0  0  0  0  0  0  0  0  0
    1.9553    1.1985   -0.7655 C   0  0  0  0  0  0  0  0  0  0  0  0
    1.0777    1.9655   -1.5407 C   0  0  0  0  0  0  0  0  0  0  0  0
    1.5357    3.0644   -2.2603 C   0  0  0  0  0  0  0  0  0  0  0  0
    2.8988    3.4070   -2.2086 C   0  0  0  0  0  0  0  0  0  0  0  0
    3.3562    4.4733   -2.9071 F   0  0  0  0  0  0  0  0  0  0  0  0
    3.3101    1.5510   -0.7164 C   0  0  0  0  0  0  0  0  0  0  0  0
    3.7888    2.6440   -1.4303 C   0  0  0  0  0  0  0  0  0  0  0  0
   -0.5113   -1.1623   -0.6805 C   0  0  2  0  0  0  0  0  0  0  0  0
    0.6751   -1.9738   -1.0857 C   0  0  0  0  0  0  0  0  0  0  0  0
    0.7408   -3.1906   -1.7359 C   0  0  0  0  0  0  0  0  0  0  0  0
    2.0146   -3.7402   -1.9892 C   0  0  0  0  0  0  0  0  0  0  0  0
    2.1126   -4.9915   -2.6570 C   0  0  0  0  0  0  0  0  0  0  0  0
    2.1925   -6.0156   -3.2033 N   0  0  0  0  0  0  0  0  0  0  0  0
    4.6286    0.6929    5.5102 H   0  0  0  0  0  0  0  0  0  0  0  0
    3.2243    1.7436    6.0069 H   0  0  0  0  0  0  0  0  0  0  0  0
    2.9710   -0.0359    5.7062 H   0  0  0  0  0  0  0  0  0  0  0  0
    5.1420    2.0158    3.7017 H   0  0  0  0  0  0  0  0  0  0  0  0
    3.7357    3.1745    3.7190 H   0  0  0  0  0  0  0  0  0  0  0  0
    4.0122    2.0931    2.2762 H   0  0  0  0  0  0  0  0  0  0  0  0
    1.4210    2.1373    4.1606 H   0  0  0  0  0  0  0  0  0  0  0  0
    1.3410    0.3179    4.1435 H   0  0  0  0  0  0  0  0  0  0  0  0
    1.9249    2.1521    1.7037 H   0  0  0  0  0  0  0  0  0  0  0  0
    0.3631    1.3470    2.1276 H   0  0  0  0  0  0  0  0  0  0  0  0
    1.4728   -0.8999    1.9693 H   0  0  0  0  0  0  0  0  0  0  0  0
    3.0286   -0.1040    1.4906 H   0  0  0  0  0  0  0  0  0  0  0  0
    4.1635   -3.5146   -1.7952 H   0  0  0  0  0  0  0  0  0  0  0  0
    4.0155   -1.3137   -0.6229 H   0  0  0  0  0  0  0  0  0  0  0  0
    0.8446    3.6661   -2.8677 H   0  0  0  0  0  0  0  0  0  0  0  0
    0.0087    1.6978   -1.5749 H   0  0  0  0  0  0  0  0  0  0  0  0
    4.8526    2.9185   -1.3928 H   0  0  0  0  0  0  0  0  0  0  0  0
    4.0111    0.9622   -0.1040 H   0  0  0  0  0  0  0  0  0  0  0  0
   -0.1684   -3.7232   -2.0502 H   0  0  0  0  0  0  0  0  0  0  0  0
   -1.1040   -0.7997   -1.5596 H   0  0  0  0  0  0  0  0  0  0  0  0
   -1.1760   -1.6978    0.0450 H   0  0  0  0  0  0  0  0  0  0  0  0
  1  2  1  0  0  0  0
  2 12  1  6  0  0  0
  2  3  1  0  0  0  0
  3 36  1  0  0  0  0
  3 35  1  0  0  0  0
  3  4  1  0  0  0  0
  4  5  1  0  0  0  0
  5  6  1  0  0  0  0
  5 32  1  0  0  0  0
  5 31  1  0  0  0  0
  6  7  1  0  0  0  0
  7 25  1  0  0  0  0
  7 27  1  0  0  0  0
  7 26  1  0  0  0  0
  8  6  1  0  0  0  0
  8 28  1  0  0  0  0
  8 29  1  0  0  0  0
  9  2  1  0  0  0  0
 10  9  1  0  0  0  0
 10 38  1  0  0  0  0
 11 10  2  0  0  0  0
 12 17  1  0  0  0  0
 13 12  2  0  0  0  0
 14 13  1  0  0  0  0
 14 15  2  0  0  0  0
 15 18  1  0  0  0  0
 16 15  1  0  0  0  0
 17 42  1  0  0  0  0
 18 17  2  0  0  0  0
 18 41  1  0  0  0  0
 19  1  1  0  0  0  0
 19 45  1  0  0  0  0
 20  9  2  0  0  0  0
 20 19  1  0  0  0  0
 21 20  1  0  0  0  0
 22 11  1  0  0  0  0
 22 21  2  0  0  0  0
 23 22  1  0  0  0  0
 24 23  3  0  0  0  0
 30  8  1  0  0  0  0
 33  4  1  0  0  0  0
 34  4  1  0  0  0  0
 37 11  1  0  0  0  0
 39 14  1  0  0  0  0
 40 13  1  0  0  0  0
 43 21  1  0  0  0  0
 44 19  1  0  0  0  0
M  END