B16
  Mrv0541 08111511043D          

 42 45  0  0  0  0            999 V2000
    0.0000    0.0000    0.0000 N   0  0  0  0  0  0  0  0  0  0  0  0
    1.3052    0.0000    0.0000 C   0  0  0  0  0  0  0  0  0  0  0  0
    2.1848    0.0000    1.2100 C   0  0  0  0  0  0  0  0  0  0  0  0
    1.8641    0.7954    2.3360 C   0  0  0  0  0  0  0  0  0  0  0  0
    0.6840    1.5894    2.3469 N   0  0  1  0  0  0  0  0  0  0  0  0
   -0.5313    0.8506    2.2845 C   0  0  0  0  0  0  0  0  0  0  0  0
   -0.8086    0.0391    1.1417 C   0  0  0  0  0  0  0  0  0  0  0  0
    3.3391   -0.7908    1.2337 C   0  0  0  0  0  0  0  0  0  0  0  0
    4.2003   -0.7668    2.3277 C   0  0  0  0  0  0  0  0  0  0  0  0
    3.9168    0.0565    3.4157 C   0  0  0  0  0  0  0  0  0  0  0  0
    2.7576    0.8238    3.4293 C   0  0  0  0  0  0  0  0  0  0  0  0
   -1.4938    0.9628    3.3059 C   0  0  0  0  0  0  0  0  0  0  0  0
   -2.7008    0.2797    3.2306 C   0  0  0  0  0  0  0  0  0  0  0  0
   -2.9573   -0.5418    2.1305 C   0  0  0  0  0  0  0  0  0  0  0  0
   -2.0327   -0.6642    1.0960 C   0  0  0  0  0  0  0  0  0  0  0  0
    2.0347   -0.0799   -1.2378 N   0  0  1  0  0  0  0  0  0  0  0  0
    1.2983   -0.4136   -2.4478 C   0  0  1  0  0  0  0  0  0  0  0  0
    0.6364    0.7797   -3.1644 C   0  0  2  0  0  0  0  0  0  0  0  0
    1.5549    1.8925   -3.3721 N   0  0  1  0  0  0  0  0  0  0  0  0
    0.9079    3.0295   -3.9867 C   0  0  0  0  0  0  0  0  0  0  0  0
    2.2820    2.2580   -2.1643 C   0  0  1  0  0  0  0  0  0  0  0  0
    2.9330    1.0456   -1.4679 C   0  0  1  0  0  0  0  0  0  0  0  0
   -4.4232   -1.4020    2.0480 Cl  0  0  0  0  0  0  0  0  0  0  0  0
   -3.4432    0.3831    4.0362 H   0  0  0  0  0  0  0  0  0  0  0  0
   -1.2989    1.6021    4.1816 H   0  0  0  0  0  0  0  0  0  0  0  0
   -2.2598   -1.3056    0.2283 H   0  0  0  0  0  0  0  0  0  0  0  0
    0.6822    2.2380    3.1137 H   0  0  0  0  0  0  0  0  0  0  0  0
    2.5404    1.4561    4.3040 H   0  0  0  0  0  0  0  0  0  0  0  0
    4.6048    0.0934    4.2740 H   0  0  0  0  0  0  0  0  0  0  0  0
    5.1034   -1.3944    2.3292 H   0  0  0  0  0  0  0  0  0  0  0  0
    3.5746   -1.4413    0.3755 H   0  0  0  0  0  0  0  0  0  0  0  0
    3.3738    1.3938   -0.4939 H   0  0  0  0  0  0  0  0  0  0  0  0
    3.7672    0.6519   -2.1157 H   0  0  0  0  0  0  0  0  0  0  0  0
    2.0562   -0.8813   -3.1409 H   0  0  0  0  0  0  0  0  0  0  0  0
    3.1039    2.9665   -2.4637 H   0  0  0  0  0  0  0  0  0  0  0  0
    1.6200    2.7912   -1.4208 H   0  0  0  0  0  0  0  0  0  0  0  0
    0.5064   -1.1799   -2.2298 H   0  0  0  0  0  0  0  0  0  0  0  0
   -0.2790    1.0939   -2.5838 H   0  0  0  0  0  0  0  0  0  0  0  0
    0.2976    0.4290   -4.1791 H   0  0  0  0  0  0  0  0  0  0  0  0
    0.1066    3.4891   -3.3445 H   0  0  0  0  0  0  0  0  0  0  0  0
    0.4443    2.7002   -4.9531 H   0  0  0  0  0  0  0  0  0  0  0  0
    1.6819    3.8112   -4.2042 H   0  0  0  0  0  0  0  0  0  0  0  0
  1  2  2  0  0  0  0
  1  7  1  0  0  0  0
  2  3  1  0  0  0  0
  3  8  2  0  0  0  0
  3  4  1  0  0  0  0
  4  5  1  0  0  0  0
  4 11  2  0  0  0  0
  5 27  1  0  0  0  0
  6  5  1  0  0  0  0
  6 12  1  0  0  0  0
  7  6  2  0  0  0  0
  8  9  1  0  0  0  0
  9 30  1  0  0  0  0
  9 10  2  0  0  0  0
 10 11  1  0  0  0  0
 10 29  1  0  0  0  0
 11 28  1  0  0  0  0
 12 25  1  0  0  0  0
 13 12  2  0  0  0  0
 13 24  1  0  0  0  0
 14 13  1  0  0  0  0
 15  7  1  0  0  0  0
 15 14  2  0  0  0  0
 16  2  1  0  0  0  0
 17 16  1  0  0  0  0
 17 37  1  0  0  0  0
 18 17  1  0  0  0  0
 18 38  1  0  0  0  0
 19 18  1  0  0  0  0
 19 21  1  0  0  0  0
 20 19  1  0  0  0  0
 20 40  1  0  0  0  0
 21 22  1  0  0  0  0
 21 36  1  0  0  0  0
 22 16  1  0  0  0  0
 22 32  1  0  0  0  0
 23 14  1  0  0  0  0
 26 15  1  0  0  0  0
 31  8  1  0  0  0  0
 33 22  1  0  0  0  0
 34 17  1  0  0  0  0
 35 21  1  0  0  0  0
 39 18  1  0  0  0  0
 41 20  1  0  0  0  0
 42 20  1  0  0  0  0
M  END