B17
  Mrv0541 08111511043D          

 42 44  0  0  0  0            999 V2000
    0.0000    0.0000    0.0000 C   0  0  0  0  0  0  0  0  0  0  0  0
    1.3953    0.0000    0.0000 C   0  0  0  0  0  0  0  0  0  0  0  0
    2.0886    0.0000    1.1990 C   0  0  0  0  0  0  0  0  0  0  0  0
    1.4153   -0.0140    2.4532 C   0  0  0  0  0  0  0  0  0  0  0  0
    2.2486    0.0049    3.5962 N   0  0  0  0  0  0  0  0  0  0  0  0
    1.8959    0.6959    4.7842 C   0  0  0  0  0  0  0  0  0  0  0  0
    2.8169    1.6321    5.3068 C   0  0  0  0  0  0  0  0  0  0  0  0
    2.5350    2.3167    6.4839 C   0  0  0  0  0  0  0  0  0  0  0  0
    3.1951   -1.0799    3.7583 C   0  0  2  0  0  0  0  0  0  0  0  0
    2.6328   -2.3978    4.2954 C   0  0  2  0  0  0  0  0  0  0  0  0
    3.7556   -3.4312    4.3494 C   0  0  1  0  0  0  0  0  0  0  0  0
    3.3327   -4.7027    4.9028 N   0  0  2  0  0  0  0  0  0  0  0  0
    4.3179   -5.7420    4.7746 C   0  0  0  0  0  0  0  0  0  0  0  0
   -0.6742    0.0012    1.2110 C   0  0  0  0  0  0  0  0  0  0  0  0
    0.0015   -0.0112    2.4454 C   0  0  0  0  0  0  0  0  0  0  0  0
   -0.8895    0.0240    3.6386 C   0  0  2  0  0  0  0  0  0  0  0  0
   -0.3042   -0.4900    4.9356 C   0  0  1  0  0  0  0  0  0  0  0  0
    0.6882    0.4711    5.4806 C   0  0  0  0  0  0  0  0  0  0  0  0
    0.4225    1.1720    6.6603 C   0  0  0  0  0  0  0  0  0  0  0  0
    1.3400    2.0886    7.1649 C   0  0  0  0  0  0  0  0  0  0  0  0
   -0.5563    0.0033   -0.9478 H   0  0  0  0  0  0  0  0  0  0  0  0
    1.9473    0.0091   -0.9514 H   0  0  0  0  0  0  0  0  0  0  0  0
    3.1899    0.0259    1.1705 H   0  0  0  0  0  0  0  0  0  0  0  0
    3.2610    3.0443    6.8763 H   0  0  0  0  0  0  0  0  0  0  0  0
    3.7646    1.8238    4.7801 H   0  0  0  0  0  0  0  0  0  0  0  0
    1.8053   -2.7607    3.6319 H   0  0  0  0  0  0  0  0  0  0  0  0
    2.2058   -2.2428    5.3205 H   0  0  0  0  0  0  0  0  0  0  0  0
    4.1859   -3.5457    3.3090 H   0  0  0  0  0  0  0  0  0  0  0  0
    4.5835   -3.0409    5.0077 H   0  0  0  0  0  0  0  0  0  0  0  0
    3.9115   -6.6792    5.2377 H   0  0  0  0  0  0  0  0  0  0  0  0
    4.6076   -5.9665    3.7102 H   0  0  0  0  0  0  0  0  0  0  0  0
    5.2448   -5.4389    5.3295 H   0  0  0  0  0  0  0  0  0  0  0  0
    2.4597   -4.9879    4.4995 H   0  0  0  0  0  0  0  0  0  0  0  0
    3.9989   -0.7189    4.4631 H   0  0  0  0  0  0  0  0  0  0  0  0
    3.6746   -1.2797    2.7578 H   0  0  0  0  0  0  0  0  0  0  0  0
   -1.7761    0.0093    1.2133 H   0  0  0  0  0  0  0  0  0  0  0  0
   -1.8105   -0.5843    3.4142 H   0  0  0  0  0  0  0  0  0  0  0  0
   -1.2296    1.0872    3.7873 H   0  0  0  0  0  0  0  0  0  0  0  0
    1.1223    2.6313    8.0961 H   0  0  0  0  0  0  0  0  0  0  0  0
   -0.5223    0.9914    7.1953 H   0  0  0  0  0  0  0  0  0  0  0  0
   -1.1388   -0.6422    5.6723 H   0  0  0  0  0  0  0  0  0  0  0  0
    0.1781   -1.4916    4.7716 H   0  0  0  0  0  0  0  0  0  0  0  0
  1  2  2  0  0  0  0
  1 14  1  0  0  0  0
  2  3  1  0  0  0  0
  3  4  2  0  0  0  0
  4  5  1  0  0  0  0
  5  9  1  0  0  0  0
  5  6  1  0  0  0  0
  6  7  2  0  0  0  0
  6 18  1  0  0  0  0
  7  8  1  0  0  0  0
  8 24  1  0  0  0  0
  8 20  2  0  0  0  0
  9 10  1  0  0  0  0
  9 34  1  0  0  0  0
 10 11  1  0  0  0  0
 10 27  1  0  0  0  0
 11 12  1  0  0  0  0
 11 29  1  0  0  0  0
 13 12  1  0  0  0  0
 13 30  1  0  0  0  0
 13 32  1  0  0  0  0
 14 36  1  0  0  0  0
 14 15  2  0  0  0  0
 15  4  1  0  0  0  0
 15 16  1  0  0  0  0
 16 38  1  0  0  0  0
 16 17  1  0  0  0  0
 17 18  1  0  0  0  0
 17 41  1  0  0  0  0
 18 19  2  0  0  0  0
 19 20  1  0  0  0  0
 19 40  1  0  0  0  0
 20 39  1  0  0  0  0
 21  1  1  0  0  0  0
 22  2  1  0  0  0  0
 23  3  1  0  0  0  0
 25  7  1  0  0  0  0
 26 10  1  0  0  0  0
 28 11  1  0  0  0  0
 31 13  1  0  0  0  0
 33 12  1  0  0  0  0
 35  9  1  0  0  0  0
 37 16  1  0  0  0  0
 42 17  1  0  0  0  0
M  END