B18
  Mrv0541 08111511043D          

 55 57  0  0  0  0            999 V2000
    0.0000    0.0000    0.0000 S   0  0  0  0  0  0  0  0  0  0  0  0
    1.7898    0.0000    0.0000 C   0  0  2  0  0  0  0  0  0  0  0  0
    2.4711    0.0000    1.3651 C   0  0  1  0  0  0  0  0  0  0  0  0
    2.2445    1.2376    2.0398 O   0  0  0  0  0  0  0  0  0  0  0  0
    3.2965    1.8305    2.7003 C   0  0  0  0  0  0  0  0  0  0  0  0
    4.3913    1.2718    2.7032 O   0  0  0  0  0  0  0  0  0  0  0  0
    2.8974    3.1157    3.3374 C   0  0  0  0  0  0  0  0  0  0  0  0
    1.9461   -1.1783    2.1990 C   0  0  0  0  0  0  0  0  0  0  0  0
    2.6429   -2.2085    2.2705 O   0  0  0  0  0  0  0  0  0  0  0  0
    2.3034    1.0582   -0.9088 C   0  0  0  0  0  0  0  0  0  0  0  0
    3.0108    0.6869   -2.0636 C   0  0  0  0  0  0  0  0  0  0  0  0
    3.4897    1.6466   -2.9448 C   0  0  0  0  0  0  0  0  0  0  0  0
    3.2597    3.0083   -2.6717 C   0  0  0  0  0  0  0  0  0  0  0  0
    3.7744    3.8831   -3.6076 O   0  0  0  0  0  0  0  0  0  0  0  0
    3.5502    5.2670   -3.3647 C   0  0  0  0  0  0  0  0  0  0  0  0
    2.0843    2.4155   -0.6530 C   0  0  0  0  0  0  0  0  0  0  0  0
    2.5573    3.3945   -1.5241 C   0  0  0  0  0  0  0  0  0  0  0  0
   -0.5273    0.5468    1.5208 C   0  0  0  0  0  0  0  0  0  0  0  0
   -0.1793   -0.0333    2.7631 C   0  0  0  0  0  0  0  0  0  0  0  0
    0.7233   -1.1184    2.8550 N   0  0  0  0  0  0  0  0  0  0  0  0
    0.3349   -2.2436    3.6910 C   0  0  1  0  0  0  0  0  0  0  0  0
    1.1295   -2.3214    5.0165 C   0  0  2  0  0  0  0  0  0  0  0  0
    0.5564   -3.2821    5.9503 N   0  0  1  0  0  0  0  0  0  0  0  0
    0.6009   -4.6446    5.4665 C   0  0  0  0  0  0  0  0  0  0  0  0
    1.1177   -3.1436    7.2772 C   0  0  0  0  0  0  0  0  0  0  0  0
   -0.7971    0.4556    3.9393 C   0  0  0  0  0  0  0  0  0  0  0  0
   -1.7388    1.4741    3.8742 C   0  0  0  0  0  0  0  0  0  0  0  0
   -1.4656    1.5866    1.4872 C   0  0  0  0  0  0  0  0  0  0  0  0
   -2.0812    2.0419    2.6466 C   0  0  0  0  0  0  0  0  0  0  0  0
    1.9695    3.5219    2.8669 H   0  0  0  0  0  0  0  0  0  0  0  0
    2.7074    2.9329    4.4240 H   0  0  0  0  0  0  0  0  0  0  0  0
    3.7320    3.8502    3.2274 H   0  0  0  0  0  0  0  0  0  0  0  0
    3.5822   -0.1687    1.2224 H   0  0  0  0  0  0  0  0  0  0  0  0
    4.0419    5.7668   -4.2376 H   0  0  0  0  0  0  0  0  0  0  0  0
    2.4563    5.4923   -3.3460 H   0  0  0  0  0  0  0  0  0  0  0  0
    4.0317    5.5824   -2.4074 H   0  0  0  0  0  0  0  0  0  0  0  0
    4.0440    1.3624   -3.8504 H   0  0  0  0  0  0  0  0  0  0  0  0
    3.1911   -0.3781   -2.2788 H   0  0  0  0  0  0  0  0  0  0  0  0
    2.3712    4.4541   -1.3030 H   0  0  0  0  0  0  0  0  0  0  0  0
    1.5290    2.7123    0.2519 H   0  0  0  0  0  0  0  0  0  0  0  0
    2.0283   -1.0109   -0.4495 H   0  0  0  0  0  0  0  0  0  0  0  0
   -0.0217   -4.7181    4.5367 H   0  0  0  0  0  0  0  0  0  0  0  0
    0.1617   -5.3244    6.2428 H   0  0  0  0  0  0  0  0  0  0  0  0
    1.6417   -4.9980    5.2288 H   0  0  0  0  0  0  0  0  0  0  0  0
    0.5923   -3.8550    7.9668 H   0  0  0  0  0  0  0  0  0  0  0  0
    2.2213   -3.3556    7.3178 H   0  0  0  0  0  0  0  0  0  0  0  0
    0.9427   -2.0976    7.6415 H   0  0  0  0  0  0  0  0  0  0  0  0
    1.1146   -1.3122    5.5174 H   0  0  0  0  0  0  0  0  0  0  0  0
    2.2041   -2.5645    4.7653 H   0  0  0  0  0  0  0  0  0  0  0  0
   -0.7676   -2.1712    3.9062 H   0  0  0  0  0  0  0  0  0  0  0  0
    0.5265   -3.1859    3.1001 H   0  0  0  0  0  0  0  0  0  0  0  0
   -2.2149    1.8335    4.7992 H   0  0  0  0  0  0  0  0  0  0  0  0
   -0.5427    0.0163    4.9173 H   0  0  0  0  0  0  0  0  0  0  0  0
   -2.8289    2.8465    2.5971 H   0  0  0  0  0  0  0  0  0  0  0  0
   -1.7194    2.0381    0.5135 H   0  0  0  0  0  0  0  0  0  0  0  0
  1 18  1  0  0  0  0
  2  1  1  0  0  0  0
  2 41  1  6  0  0  0
  2  3  1  0  0  0  0
  3 33  1  6  0  0  0
  3  4  1  0  0  0  0
  3  8  1  0  0  0  0
  4  5  1  0  0  0  0
  5  6  2  0  0  0  0
  5  7  1  0  0  0  0
  7 31  1  0  0  0  0
  8  9  2  0  0  0  0
  8 20  1  0  0  0  0
 10  2  1  0  0  0  0
 10 16  1  0  0  0  0
 11 10  2  0  0  0  0
 12 11  1  0  0  0  0
 12 13  2  0  0  0  0
 13 17  1  0  0  0  0
 14 13  1  0  0  0  0
 14 15  1  0  0  0  0
 15 35  1  0  0  0  0
 15 36  1  0  0  0  0
 16 40  1  0  0  0  0
 17 16  2  0  0  0  0
 17 39  1  0  0  0  0
 18 19  1  0  0  0  0
 19 20  1  0  0  0  0
 19 26  2  0  0  0  0
 20 21  1  0  0  0  0
 21 50  1  0  0  0  0
 21 22  1  0  0  0  0
 22 48  1  0  0  0  0
 22 23  1  0  0  0  0
 23 25  1  0  0  0  0
 24 23  1  0  0  0  0
 24 43  1  0  0  0  0
 25 46  1  0  0  0  0
 25 47  1  0  0  0  0
 25 45  1  0  0  0  0
 26 53  1  0  0  0  0
 27 26  1  0  0  0  0
 27 52  1  0  0  0  0
 28 18  2  0  0  0  0
 28 29  1  0  0  0  0
 29 27  2  0  0  0  0
 30  7  1  0  0  0  0
 32  7  1  0  0  0  0
 34 15  1  0  0  0  0
 37 12  1  0  0  0  0
 38 11  1  0  0  0  0
 42 24  1  0  0  0  0
 44 24  1  0  0  0  0
 49 22  1  0  0  0  0
 51 21  1  0  0  0  0
 54 29  1  0  0  0  0
 55 28  1  0  0  0  0
M  END