B19
  Mrv0541 08111511043D          

 46 48  0  0  0  0            999 V2000
    0.0000    0.0000    0.0000 N   0  0  2  0  0  0  0  0  0  0  0  0
    1.4575    0.0000    0.0000 C   0  0  2  0  0  0  0  0  0  0  0  0
    2.0770    0.0000    1.3992 C   0  0  1  0  0  0  0  0  0  0  0  0
    3.5425    0.1415    1.3579 C   0  0  0  0  0  0  0  0  0  0  0  0
    4.4584   -0.3415    2.2508 C   0  0  0  0  0  0  0  0  0  0  0  0
    4.2435   -1.1444    3.4833 C   0  0  1  0  0  0  0  0  0  0  0  0
    3.3162   -0.4388    4.4541 C   0  0  0  0  0  0  0  0  0  0  0  0
    3.8160   -2.5549    3.1339 C   0  0  0  0  0  0  0  0  0  0  0  0
    2.6263   -3.0435    3.5580 N   0  0  0  0  0  0  0  0  0  0  0  0
    2.3246   -4.3162    3.2400 C   0  0  0  0  0  0  0  0  0  0  0  0
    4.7244   -3.3362    2.3793 C   0  0  0  0  0  0  0  0  0  0  0  0
    4.3899   -4.6501    2.0601 C   0  0  0  0  0  0  0  0  0  0  0  0
    3.1662   -5.1610    2.4970 C   0  0  0  0  0  0  0  0  0  0  0  0
    5.8064    0.0764    1.8285 C   0  0  0  0  0  0  0  0  0  0  0  0
    7.0581   -0.1532    2.3792 C   0  0  0  0  0  0  0  0  0  0  0  0
    8.1827    0.3859    1.7411 C   0  0  0  0  0  0  0  0  0  0  0  0
    4.2317    0.9291    0.2614 C   0  0  2  0  0  0  0  0  0  0  0  0
    5.6811    0.8462    0.6332 C   0  0  0  0  0  0  0  0  0  0  0  0
    6.7953    1.3744    0.0093 C   0  0  0  0  0  0  0  0  0  0  0  0
    8.0555    1.1378    0.5759 C   0  0  0  0  0  0  0  0  0  0  0  0
   -0.5816   -1.1436    0.6651 C   0  0  0  0  0  0  0  0  0  0  0  0
   -0.5373    0.2090   -1.3268 C   0  0  0  0  0  0  0  0  0  0  0  0
    3.7339    0.5663    4.7054 H   0  0  0  0  0  0  0  0  0  0  0  0
    2.2996   -0.3003    4.0144 H   0  0  0  0  0  0  0  0  0  0  0  0
    3.2184   -1.0319    5.3948 H   0  0  0  0  0  0  0  0  0  0  0  0
    1.3460   -4.6742    3.6078 H   0  0  0  0  0  0  0  0  0  0  0  0
    2.8644   -6.1910    2.2702 H   0  0  0  0  0  0  0  0  0  0  0  0
    5.0796   -5.2743    1.4737 H   0  0  0  0  0  0  0  0  0  0  0  0
    5.6754   -2.8942    2.0496 H   0  0  0  0  0  0  0  0  0  0  0  0
    5.2430   -1.2581    4.0054 H   0  0  0  0  0  0  0  0  0  0  0  0
    9.1802    0.2111    2.1710 H   0  0  0  0  0  0  0  0  0  0  0  0
    7.1784   -0.7436    3.2984 H   0  0  0  0  0  0  0  0  0  0  0  0
    8.9518    1.5527    0.0920 H   0  0  0  0  0  0  0  0  0  0  0  0
    6.7025    1.9684   -0.9105 H   0  0  0  0  0  0  0  0  0  0  0  0
    3.8695    1.9877    0.2435 H   0  0  0  0  0  0  0  0  0  0  0  0
    4.0430    0.4671   -0.7410 H   0  0  0  0  0  0  0  0  0  0  0  0
    1.6484    0.8495    2.0012 H   0  0  0  0  0  0  0  0  0  0  0  0
    1.8100   -0.9532    1.9327 H   0  0  0  0  0  0  0  0  0  0  0  0
    1.7853    0.9366   -0.5364 H   0  0  0  0  0  0  0  0  0  0  0  0
    1.8721   -0.8822   -0.5720 H   0  0  0  0  0  0  0  0  0  0  0  0
   -1.6988   -1.0896    0.5828 H   0  0  0  0  0  0  0  0  0  0  0  0
   -0.2403   -2.1266    0.2382 H   0  0  0  0  0  0  0  0  0  0  0  0
   -0.3046   -1.1099    1.7513 H   0  0  0  0  0  0  0  0  0  0  0  0
   -0.1368    1.1730   -1.7367 H   0  0  0  0  0  0  0  0  0  0  0  0
   -0.2816   -0.6173   -2.0460 H   0  0  0  0  0  0  0  0  0  0  0  0
   -1.6538    0.2869   -1.2570 H   0  0  0  0  0  0  0  0  0  0  0  0
  1  2  1  0  0  0  0
  1 21  1  0  0  0  0
  2  3  1  0  0  0  0
  3 38  1  0  0  0  0
  3 37  1  0  0  0  0
  4  3  1  0  0  0  0
  4  5  2  0  0  0  0
  5  6  1  0  0  0  0
  6 30  1  1  0  0  0
  6  7  1  0  0  0  0
  7 23  1  0  0  0  0
  7 25  1  0  0  0  0
  8  6  1  0  0  0  0
  8  9  1  0  0  0  0
 10  9  2  0  0  0  0
 10 26  1  0  0  0  0
 11  8  2  0  0  0  0
 12 11  1  0  0  0  0
 12 13  2  0  0  0  0
 13 10  1  0  0  0  0
 14  5  1  0  0  0  0
 14 15  1  0  0  0  0
 15 32  1  0  0  0  0
 16 15  2  0  0  0  0
 16 31  1  0  0  0  0
 17  4  1  0  0  0  0
 17 18  1  0  0  0  0
 18 14  2  0  0  0  0
 19 18  1  0  0  0  0
 19 20  2  0  0  0  0
 20 16  1  0  0  0  0
 21 43  1  0  0  0  0
 22  1  1  0  0  0  0
 22 46  1  0  0  0  0
 24  7  1  0  0  0  0
 27 13  1  0  0  0  0
 28 12  1  0  0  0  0
 29 11  1  0  0  0  0
 33 20  1  0  0  0  0
 34 19  1  0  0  0  0
 35 17  1  0  0  0  0
 36 17  1  0  0  0  0
 39  2  1  0  0  0  0
 40  2  1  0  0  0  0
 41 21  1  0  0  0  0
 42 21  1  0  0  0  0
 44 22  1  0  0  0  0
 45 22  1  0  0  0  0
M  END