B2
  Mrv0541 08111511043D          

 44 46  0  0  0  0            999 V2000
    0.0000    0.0000    0.0000 C   0  0  1  0  0  0  0  0  0  0  0  0
    1.5143    0.0000    0.0000 C   0  0  1  0  0  0  0  0  0  0  0  0
    2.2081    0.0000    1.3203 C   0  0  0  0  0  0  0  0  0  0  0  0
    1.6125   -0.2070    2.5742 C   0  0  0  0  0  0  0  0  0  0  0  0
    0.1737   -0.4336    2.7780 C   0  0  0  0  0  0  0  0  0  0  0  0
   -0.4525   -1.4709    1.9517 C   0  0  0  0  0  0  0  0  0  0  0  0
   -0.5527   -1.2591    0.5655 C   0  0  0  0  0  0  0  0  0  0  0  0
    3.5983    0.2161    1.2608 C   0  0  0  0  0  0  0  0  0  0  0  0
    4.3832    0.2248    2.4060 C   0  0  0  0  0  0  0  0  0  0  0  0
    3.7886    0.0153    3.6513 C   0  0  0  0  0  0  0  0  0  0  0  0
    2.4184   -0.1963    3.7288 C   0  0  0  0  0  0  0  0  0  0  0  0
   -0.9415   -2.6561    2.5100 C   0  0  0  0  0  0  0  0  0  0  0  0
   -1.5340   -3.6203    1.6952 C   0  0  0  0  0  0  0  0  0  0  0  0
   -1.6448   -3.4042    0.3225 C   0  0  0  0  0  0  0  0  0  0  0  0
   -1.1550   -2.2266   -0.2416 C   0  0  0  0  0  0  0  0  0  0  0  0
   -0.5007    0.2895    3.6919 C   0  0  0  0  0  0  0  0  0  0  0  0
   -1.9503    0.1774    3.9726 C   0  0  2  0  0  0  0  0  0  0  0  0
   -3.6160    0.4284    5.8269 N   0  0  2  0  0  0  0  0  0  0  0  0
   -3.7945    0.7211    7.2321 C   0  0  0  0  0  0  0  0  0  0  0  0
   -4.4511   -0.6588    5.3708 C   0  0  0  0  0  0  0  0  0  0  0  0
   -2.2101    0.2715    5.4781 C   0  0  1  0  0  0  0  0  0  0  0  0
   -0.3790    0.8748    0.5950 H   0  0  0  0  0  0  0  0  0  0  0  0
   -0.3543    0.1347   -1.0576 H   0  0  0  0  0  0  0  0  0  0  0  0
    1.8735   -0.9011   -0.5723 H   0  0  0  0  0  0  0  0  0  0  0  0
    1.8548    0.9092   -0.5712 H   0  0  0  0  0  0  0  0  0  0  0  0
    4.0694    0.3806    0.2791 H   0  0  0  0  0  0  0  0  0  0  0  0
    5.4672    0.3944    2.3324 H   0  0  0  0  0  0  0  0  0  0  0  0
    4.4009    0.0169    4.5644 H   0  0  0  0  0  0  0  0  0  0  0  0
    1.9467   -0.3656    4.7092 H   0  0  0  0  0  0  0  0  0  0  0  0
   -0.8540   -2.8263    3.5933 H   0  0  0  0  0  0  0  0  0  0  0  0
   -1.9137   -4.5523    2.1384 H   0  0  0  0  0  0  0  0  0  0  0  0
   -2.1164   -4.1636   -0.3181 H   0  0  0  0  0  0  0  0  0  0  0  0
   -1.2409   -2.0589   -1.3254 H   0  0  0  0  0  0  0  0  0  0  0  0
    0.0324    1.0618    4.2746 H   0  0  0  0  0  0  0  0  0  0  0  0
   -2.3580   -0.7896    3.5728 H   0  0  0  0  0  0  0  0  0  0  0  0
   -2.4838    1.0124    3.4400 H   0  0  0  0  0  0  0  0  0  0  0  0
   -1.7611   -0.6408    5.9718 H   0  0  0  0  0  0  0  0  0  0  0  0
   -1.6659    1.1742    5.8791 H   0  0  0  0  0  0  0  0  0  0  0  0
   -5.5091   -0.4699    5.6913 H   0  0  0  0  0  0  0  0  0  0  0  0
   -4.1324   -1.6615    5.7689 H   0  0  0  0  0  0  0  0  0  0  0  0
   -4.4200   -0.6932    4.2503 H   0  0  0  0  0  0  0  0  0  0  0  0
   -4.8815    0.9170    7.4258 H   0  0  0  0  0  0  0  0  0  0  0  0
   -3.2130    1.6445    7.4903 H   0  0  0  0  0  0  0  0  0  0  0  0
   -3.4566   -0.1131    7.9069 H   0  0  0  0  0  0  0  0  0  0  0  0
  1  2  1  0  0  0  0
  1  7  1  0  0  0  0
  1 22  1  0  0  0  0
  2  3  1  0  0  0  0
  3  4  1  0  0  0  0
  4  5  1  0  0  0  0
  4 11  2  0  0  0  0
  5 16  2  0  0  0  0
  6  5  1  0  0  0  0
  6 12  1  0  0  0  0
  7  6  2  0  0  0  0
  8  3  2  0  0  0  0
  8  9  1  0  0  0  0
  9 10  2  0  0  0  0
 10 11  1  0  0  0  0
 10 28  1  0  0  0  0
 11 29  1  0  0  0  0
 12 30  1  0  0  0  0
 13 12  2  0  0  0  0
 13 31  1  0  0  0  0
 14 13  1  0  0  0  0
 15  7  1  0  0  0  0
 15 14  2  0  0  0  0
 16 17  1  0  0  0  0
 16 34  1  0  0  0  0
 17 21  1  0  0  0  0
 18 19  1  0  0  0  0
 19 42  1  0  0  0  0
 19 43  1  0  0  0  0
 19 44  1  0  0  0  0
 20 18  1  0  0  0  0
 20 39  1  0  0  0  0
 20 40  1  0  0  0  0
 21 18  1  0  0  0  0
 21 38  1  0  0  0  0
 21 37  1  0  0  0  0
 23  1  1  0  0  0  0
 24  2  1  0  0  0  0
 25  2  1  0  0  0  0
 26  8  1  0  0  0  0
 27  9  1  0  0  0  0
 32 14  1  0  0  0  0
 33 15  1  0  0  0  0
 35 17  1  0  0  0  0
 36 17  1  0  0  0  0
 41 20  1  0  0  0  0
M  END