B21
  Mrv0541 08111511043D          

 54 58  0  0  0  0            999 V2000
    0.0000    0.0000    0.0000 Cl  0  0  0  0  0  0  0  0  0  0  0  0
    1.7013    0.0000    0.0000 C   0  0  0  0  0  0  0  0  0  0  0  0
    2.3732    0.0000    1.2319 C   0  0  0  0  0  0  0  0  0  0  0  0
    3.7607   -0.0007    1.2017 C   0  0  0  0  0  0  0  0  0  0  0  0
    4.7053    0.0472    2.2468 N   0  0  0  0  0  0  0  0  0  0  0  0
    6.0054   -0.0434    1.6612 C   0  0  0  0  0  0  0  0  0  0  0  0
    7.0765   -0.0940    2.2885 O   0  0  0  0  0  0  0  0  0  0  0  0
    4.4836   -0.0029   -0.0590 C   0  0  0  0  0  0  0  0  0  0  0  0
    5.8627    0.0233    0.2360 N   0  0  0  0  0  0  0  0  0  0  0  0
    6.9585   -0.2514   -0.6641 C   0  0  1  0  0  0  0  0  0  0  0  0
    6.8375   -1.5925   -1.4036 C   0  0  2  0  0  0  0  0  0  0  0  0
    8.0746   -1.8272   -2.2653 C   0  0  1  0  0  0  0  0  0  0  0  0
    8.3392   -0.7461   -3.2077 N   0  0  2  0  0  0  0  0  0  0  0  0
    9.5208   -1.0250   -4.0147 C   0  0  1  0  0  0  0  0  0  0  0  0
    9.7007   -0.1169   -5.2275 C   0  0  1  0  0  0  0  0  0  0  0  0
    8.5135   -0.2301   -6.1835 C   0  0  1  0  0  0  0  0  0  0  0  0
    8.6158    0.5316   -7.3974 N   0  0  0  0  0  0  0  0  0  0  0  0
    8.6273    1.9487   -7.4472 C   0  0  0  0  0  0  0  0  0  0  0  0
    9.2784    2.3514   -8.6795 C   0  0  0  0  0  0  0  0  0  0  0  0
    9.3682    3.6923   -9.0266 C   0  0  0  0  0  0  0  0  0  0  0  0
    8.8170    4.6337   -8.1479 C   0  0  0  0  0  0  0  0  0  0  0  0
    8.0957    2.9027   -6.5904 C   0  0  0  0  0  0  0  0  0  0  0  0
    8.2002    4.2496   -6.9609 C   0  0  0  0  0  0  0  0  0  0  0  0
    9.3589    0.0631   -8.5359 C   0  0  0  0  0  0  0  0  0  0  0  0
    9.5882   -1.1235   -8.8235 O   0  0  0  0  0  0  0  0  0  0  0  0
    9.7749    1.1901   -9.3074 N   0  0  0  0  0  0  0  0  0  0  0  0
    7.1617    0.8611   -1.7047 C   0  0  2  0  0  0  0  0  0  0  0  0
    8.3891    0.5574   -2.5599 C   0  0  2  0  0  0  0  0  0  0  0  0
    2.3859   -0.0003   -1.2169 C   0  0  0  0  0  0  0  0  0  0  0  0
    3.7836   -0.0025   -1.2602 C   0  0  0  0  0  0  0  0  0  0  0  0
    4.5253   -0.2747    3.1637 H   0  0  0  0  0  0  0  0  0  0  0  0
    8.8775    5.7012   -8.4087 H   0  0  0  0  0  0  0  0  0  0  0  0
    9.8555    4.0116   -9.9575 H   0  0  0  0  0  0  0  0  0  0  0  0
    7.7821    5.0173   -6.2925 H   0  0  0  0  0  0  0  0  0  0  0  0
    7.6073    2.6131   -5.6496 H   0  0  0  0  0  0  0  0  0  0  0  0
    9.9687    1.1241  -10.2731 H   0  0  0  0  0  0  0  0  0  0  0  0
    8.3836   -1.3104   -6.4831 H   0  0  0  0  0  0  0  0  0  0  0  0
    7.5774    0.1161   -5.6582 H   0  0  0  0  0  0  0  0  0  0  0  0
    9.8404    0.9486   -4.9098 H   0  0  0  0  0  0  0  0  0  0  0  0
   10.6422   -0.4383   -5.7478 H   0  0  0  0  0  0  0  0  0  0  0  0
   10.4653   -0.9588   -3.3958 H   0  0  0  0  0  0  0  0  0  0  0  0
    9.4331   -2.0871   -4.3853 H   0  0  0  0  0  0  0  0  0  0  0  0
    8.9579   -2.0049   -1.5821 H   0  0  0  0  0  0  0  0  0  0  0  0
    7.9127   -2.7680   -2.8645 H   0  0  0  0  0  0  0  0  0  0  0  0
    5.9162   -1.5977   -2.0417 H   0  0  0  0  0  0  0  0  0  0  0  0
    6.7561   -2.4366   -0.6715 H   0  0  0  0  0  0  0  0  0  0  0  0
    8.4473    1.3367   -3.3724 H   0  0  0  0  0  0  0  0  0  0  0  0
    9.3118    0.6652   -1.9155 H   0  0  0  0  0  0  0  0  0  0  0  0
    7.3227    1.8455   -1.1945 H   0  0  0  0  0  0  0  0  0  0  0  0
    6.2538    0.9528   -2.3544 H   0  0  0  0  0  0  0  0  0  0  0  0
    7.8877   -0.2915   -0.0118 H   0  0  0  0  0  0  0  0  0  0  0  0
    1.8186    0.0051    2.1807 H   0  0  0  0  0  0  0  0  0  0  0  0
    4.3056   -0.0027   -2.2279 H   0  0  0  0  0  0  0  0  0  0  0  0
    1.8233    0.0015   -2.1637 H   0  0  0  0  0  0  0  0  0  0  0  0
  2  1  1  0  0  0  0
  2  3  1  0  0  0  0
  3 52  1  0  0  0  0
  4  3  2  0  0  0  0
  4  5  1  0  0  0  0
  5 31  1  0  0  0  0
  6  5  1  0  0  0  0
  6  7  2  0  0  0  0
  8  4  1  0  0  0  0
  8  9  1  0  0  0  0
  9  6  1  0  0  0  0
 10  9  1  0  0  0  0
 10 51  1  1  0  0  0
 11 10  1  0  0  0  0
 11 46  1  0  0  0  0
 12 11  1  0  0  0  0
 12 43  1  0  0  0  0
 13 12  1  0  0  0  0
 13 28  1  0  0  0  0
 14 13  1  0  0  0  0
 14 41  1  0  0  0  0
 15 14  1  0  0  0  0
 15 39  1  0  0  0  0
 16 15  1  0  0  0  0
 16 38  1  0  0  0  0
 17 16  1  0  0  0  0
 18 17  1  0  0  0  0
 18 22  1  0  0  0  0
 19 18  2  0  0  0  0
 20 19  1  0  0  0  0
 20 21  2  0  0  0  0
 21 23  1  0  0  0  0
 22 35  1  0  0  0  0
 23 22  2  0  0  0  0
 23 34  1  0  0  0  0
 24 17  1  0  0  0  0
 25 24  2  0  0  0  0
 26 19  1  0  0  0  0
 26 24  1  0  0  0  0
 27 10  1  0  0  0  0
 27 49  1  0  0  0  0
 28 27  1  0  0  0  0
 28 48  1  0  0  0  0
 29  2  2  0  0  0  0
 30  8  2  0  0  0  0
 30 29  1  0  0  0  0
 32 21  1  0  0  0  0
 33 20  1  0  0  0  0
 36 26  1  0  0  0  0
 37 16  1  0  0  0  0
 40 15  1  0  0  0  0
 42 14  1  0  0  0  0
 44 12  1  0  0  0  0
 45 11  1  0  0  0  0
 47 28  1  0  0  0  0
 50 27  1  0  0  0  0
 53 30  1  0  0  0  0
 54 29  1  0  0  0  0
M  END