B24
  Mrv0541 08111511043D          

 34 36  0  0  0  0            999 V2000
    0.0000    0.0000    0.0000 C   0  0  0  0  0  0  0  0  0  0  0  0
    1.3889    0.0000    0.0000 C   0  0  0  0  0  0  0  0  0  0  0  0
    2.0816    0.0000    1.2252 C   0  0  0  0  0  0  0  0  0  0  0  0
    1.3751   -0.0051    2.4374 C   0  0  0  0  0  0  0  0  0  0  0  0
    3.4338    0.0008    1.2379 F   0  0  0  0  0  0  0  0  0  0  0  0
   -0.7378    0.0052    1.1898 C   0  0  0  0  0  0  0  0  0  0  0  0
   -0.0300   -0.0041    2.4128 C   0  0  0  0  0  0  0  0  0  0  0  0
   -0.6882   -0.0155    3.5989 F   0  0  0  0  0  0  0  0  0  0  0  0
   -2.2450   -0.0024    1.1356 C   0  0  2  0  0  0  0  0  0  0  0  0
   -2.8915    1.0958    2.0185 C   0  0  1  0  0  0  0  0  0  0  0  0
   -2.2516    2.3903    1.9586 N   0  0  0  0  0  0  0  0  0  0  0  0
   -1.7166    3.0956    3.0602 C   0  0  0  0  0  0  0  0  0  0  0  0
   -1.2491    4.2887    2.6401 N   0  0  0  0  0  0  0  0  0  0  0  0
   -2.1232    3.1331    0.8428 N   0  0  0  0  0  0  0  0  0  0  0  0
   -1.5159    4.2794    1.2584 C   0  0  0  0  0  0  0  0  0  0  0  0
   -2.7258   -1.4081    1.6115 C   0  0  1  0  0  0  0  0  0  0  0  0
   -4.1568   -1.5684    1.6940 N   0  0  0  0  0  0  0  0  0  0  0  0
   -5.0147   -1.8556    0.6070 C   0  0  0  0  0  0  0  0  0  0  0  0
   -6.2872   -1.9057    1.0469 N   0  0  0  0  0  0  0  0  0  0  0  0
   -4.8866   -1.4122    2.8175 N   0  0  0  0  0  0  0  0  0  0  0  0
   -6.1717   -1.6261    2.4233 C   0  0  0  0  0  0  0  0  0  0  0  0
   -2.7167    0.1126   -0.1995 O   0  0  0  0  0  0  0  0  0  0  0  0
   -0.5355   -0.0105   -0.9652 H   0  0  0  0  0  0  0  0  0  0  0  0
    1.9519    0.0007   -0.9449 H   0  0  0  0  0  0  0  0  0  0  0  0
    1.9112   -0.0074    3.3977 H   0  0  0  0  0  0  0  0  0  0  0  0
   -3.9649    1.2106    1.6858 H   0  0  0  0  0  0  0  0  0  0  0  0
   -2.8718    0.7582    3.0935 H   0  0  0  0  0  0  0  0  0  0  0  0
   -1.6989    2.6943    4.0789 H   0  0  0  0  0  0  0  0  0  0  0  0
   -1.2589    5.1138    0.5979 H   0  0  0  0  0  0  0  0  0  0  0  0
   -2.3449   -2.1618    0.8653 H   0  0  0  0  0  0  0  0  0  0  0  0
   -2.2629   -1.6057    2.6201 H   0  0  0  0  0  0  0  0  0  0  0  0
   -4.6505   -1.9922   -0.4170 H   0  0  0  0  0  0  0  0  0  0  0  0
   -7.0352   -1.5917    3.0953 H   0  0  0  0  0  0  0  0  0  0  0  0
   -2.5332    1.0095   -0.5093 H   0  0  0  0  0  0  0  0  0  0  0  0
  1  2  2  0  0  0  0
  1  6  1  0  0  0  0
  2  3  1  0  0  0  0
  3  5  1  0  0  0  0
  3  4  2  0  0  0  0
  4 25  1  0  0  0  0
  6  7  2  0  0  0  0
  7  4  1  0  0  0  0
  7  8  1  0  0  0  0
  9  6  1  1  0  0  0
  9 16  1  0  0  0  0
  9 10  1  0  0  0  0
 10 27  1  0  0  0  0
 11 10  1  0  0  0  0
 11 12  1  0  0  0  0
 12 28  1  0  0  0  0
 13 12  2  0  0  0  0
 14 11  1  0  0  0  0
 14 15  2  0  0  0  0
 15 13  1  0  0  0  0
 16 17  1  0  0  0  0
 16 31  1  0  0  0  0
 17 20  1  0  0  0  0
 18 17  1  0  0  0  0
 18 19  2  0  0  0  0
 19 21  1  0  0  0  0
 21 20  2  0  0  0  0
 21 33  1  0  0  0  0
 22  9  1  0  0  0  0
 23  1  1  0  0  0  0
 24  2  1  0  0  0  0
 26 10  1  0  0  0  0
 29 15  1  0  0  0  0
 30 16  1  0  0  0  0
 32 18  1  0  0  0  0
 34 22  1  0  0  0  0
M  END