B26
  Mrv0541 08111511043D          

 43 43  0  0  0  0            999 V2000
    0.0000    0.0000    0.0000 C   0  0  0  0  0  0  0  0  0  0  0  0
    1.3943    0.0000    0.0000 C   0  0  0  0  0  0  0  0  0  0  0  0
    2.0872    0.0000    1.2115 C   0  0  0  0  0  0  0  0  0  0  0  0
    3.6103   -0.0187    1.2131 C   0  0  2  0  0  0  0  0  0  0  0  0
    4.1890    0.6072    2.2907 F   0  0  0  0  0  0  0  0  0  0  0  0
    4.1917    0.5830    0.1232 F   0  0  0  0  0  0  0  0  0  0  0  0
    4.1568   -1.2802    1.2280 F   0  0  0  0  0  0  0  0  0  0  0  0
   -0.7024   -0.0051    1.2114 C   0  0  0  0  0  0  0  0  0  0  0  0
    0.0016   -0.0003    2.4234 C   0  0  0  0  0  0  0  0  0  0  0  0
    1.3939    0.0029    2.4243 C   0  0  0  0  0  0  0  0  0  0  0  0
   -2.1813   -0.0267    1.2283 C   0  0  0  0  0  0  0  0  0  0  0  0
   -2.8070   -1.0303    2.1571 C   0  0  2  0  0  0  0  0  0  0  0  0
   -3.4930   -0.3541    3.3279 C   0  0  1  0  0  0  0  0  0  0  0  0
   -4.1065   -1.3810    4.2539 C   0  0  1  0  0  0  0  0  0  0  0  0
   -4.7949   -0.6957    5.4208 C   0  0  1  0  0  0  0  0  0  0  0  0
   -5.3378   -1.7306    6.2393 O   0  0  0  0  0  0  0  0  0  0  0  0
   -6.0138   -1.2246    7.3767 C   0  0  0  0  0  0  0  0  0  0  0  0
   -2.8188    0.8037    0.4379 N   0  0  0  0  0  0  0  0  0  0  0  0
   -4.1361    0.7393    0.4777 O   0  0  0  0  0  0  0  0  0  0  0  0
   -4.7861    1.6896   -0.4192 C   0  0  2  0  0  0  0  0  0  0  0  0
   -6.2807    1.4346   -0.1849 C   0  0  1  0  0  0  0  0  0  0  0  0
   -7.1038    2.2635   -1.0302 N   0  0  1  0  0  0  0  0  0  0  0  0
   -0.5446    0.0065   -0.9567 H   0  0  0  0  0  0  0  0  0  0  0  0
    1.9496    0.0069   -0.9514 H   0  0  0  0  0  0  0  0  0  0  0  0
   -0.5475    0.0049    3.3778 H   0  0  0  0  0  0  0  0  0  0  0  0
    1.9500    0.0138    3.3751 H   0  0  0  0  0  0  0  0  0  0  0  0
   -2.0241   -1.7403    2.5329 H   0  0  0  0  0  0  0  0  0  0  0  0
   -3.5621   -1.6336    1.5827 H   0  0  0  0  0  0  0  0  0  0  0  0
   -2.7517    0.2702    3.8931 H   0  0  0  0  0  0  0  0  0  0  0  0
   -4.2899    0.3370    2.9436 H   0  0  0  0  0  0  0  0  0  0  0  0
   -4.8531   -2.0070    3.6993 H   0  0  0  0  0  0  0  0  0  0  0  0
   -3.3176   -2.0750    4.6449 H   0  0  0  0  0  0  0  0  0  0  0  0
   -4.0652   -0.0870    6.0187 H   0  0  0  0  0  0  0  0  0  0  0  0
   -5.6216   -0.0253    5.0639 H   0  0  0  0  0  0  0  0  0  0  0  0
   -6.8738   -0.5789    7.0705 H   0  0  0  0  0  0  0  0  0  0  0  0
   -6.3788   -2.1355    7.9133 H   0  0  0  0  0  0  0  0  0  0  0  0
   -5.3141   -0.6414    8.0253 H   0  0  0  0  0  0  0  0  0  0  0  0
   -6.4702    0.3289   -0.3231 H   0  0  0  0  0  0  0  0  0  0  0  0
   -6.5206    1.6803    0.8885 H   0  0  0  0  0  0  0  0  0  0  0  0
   -6.9332    2.0759   -1.9979 H   0  0  0  0  0  0  0  0  0  0  0  0
   -8.0712    2.1102   -0.8276 H   0  0  0  0  0  0  0  0  0  0  0  0
   -4.4862    1.4728   -1.4754 H   0  0  0  0  0  0  0  0  0  0  0  0
   -4.4957    2.7336   -0.1415 H   0  0  0  0  0  0  0  0  0  0  0  0
  1  2  2  0  0  0  0
  1  8  1  0  0  0  0
  2  3  1  0  0  0  0
  3  4  1  0  0  0  0
  3 10  2  0  0  0  0
  4  7  1  0  0  0  0
  4  5  1  0  0  0  0
  6  4  1  0  0  0  0
  8 11  1  0  0  0  0
  8  9  2  0  0  0  0
  9 10  1  0  0  0  0
  9 25  1  0  0  0  0
 10 26  1  0  0  0  0
 11 12  1  0  0  0  0
 12 27  1  0  0  0  0
 12 13  1  0  0  0  0
 13 29  1  0  0  0  0
 13 14  1  0  0  0  0
 14 32  1  0  0  0  0
 14 15  1  0  0  0  0
 15 33  1  0  0  0  0
 15 16  1  0  0  0  0
 16 17  1  0  0  0  0
 17 36  1  0  0  0  0
 17 37  1  0  0  0  0
 18 11  2  0  0  0  0
 18 19  1  0  0  0  0
 20 19  1  0  0  0  0
 20 21  1  0  0  0  0
 20 43  1  0  0  0  0
 21 39  1  0  0  0  0
 22 21  1  0  0  0  0
 22 41  1  0  0  0  0
 23  1  1  0  0  0  0
 24  2  1  0  0  0  0
 28 12  1  0  0  0  0
 30 13  1  0  0  0  0
 31 14  1  0  0  0  0
 34 15  1  0  0  0  0
 35 17  1  0  0  0  0
 38 21  1  0  0  0  0
 40 22  1  0  0  0  0
 42 20  1  0  0  0  0
M  END