B27
  Mrv0541 08111511043D          

 49 51  0  0  0  0            999 V2000
    0.0000    0.0000    0.0000 Cl  0  0  0  0  0  0  0  0  0  0  0  0
    1.7003    0.0000    0.0000 C   0  0  0  0  0  0  0  0  0  0  0  0
    2.3963    0.0000    1.2133 C   0  0  0  0  0  0  0  0  0  0  0  0
    3.7878    0.0088    1.2034 C   0  0  0  0  0  0  0  0  0  0  0  0
    4.5007    0.0225   -0.0057 C   0  0  0  0  0  0  0  0  0  0  0  0
    6.0095    0.0450    0.0662 C   0  0  1  0  0  0  0  0  0  0  0  0
    6.3377   -1.0433    0.9462 O   0  0  0  0  0  0  0  0  0  0  0  0
    6.7260   -0.1823   -1.2693 C   0  0  2  0  0  0  0  0  0  0  0  0
    6.8014    1.0516   -2.1632 C   0  0  2  0  0  0  0  0  0  0  0  0
    7.2772    2.2458   -1.4795 N   0  0  1  0  0  0  0  0  0  0  0  0
    7.3430    3.4061   -2.3603 C   0  0  1  0  0  0  0  0  0  0  0  0
    8.5161    3.3872   -3.3392 C   0  0  2  0  0  0  0  0  0  0  0  0
    9.8634    3.4717   -2.6566 C   0  0  2  0  0  0  0  0  0  0  0  0
   10.1783    4.8378   -2.1148 C   0  0  0  0  0  0  0  0  0  0  0  0
    9.3853    5.7851   -2.2049 O   0  0  0  0  0  0  0  0  0  0  0  0
   11.4981    5.0114   -1.4659 C   0  0  0  0  0  0  0  0  0  0  0  0
   11.8617    6.2902   -1.0165 C   0  0  0  0  0  0  0  0  0  0  0  0
   13.0887    6.5094   -0.4021 C   0  0  0  0  0  0  0  0  0  0  0  0
   13.9756    5.4302   -0.2288 C   0  0  0  0  0  0  0  0  0  0  0  0
   15.1733    5.6294    0.3679 F   0  0  0  0  0  0  0  0  0  0  0  0
   12.3877    3.9453   -1.2874 C   0  0  0  0  0  0  0  0  0  0  0  0
   13.6201    4.1428   -0.6742 C   0  0  0  0  0  0  0  0  0  0  0  0
    6.5081    1.3520    0.7032 C   0  0  2  0  0  0  0  0  0  0  0  0
    6.5061    2.5209   -0.2731 C   0  0  2  0  0  0  0  0  0  0  0  0
    2.3958   -0.0068   -1.2109 C   0  0  0  0  0  0  0  0  0  0  0  0
    3.7909   -0.0036   -1.2083 C   0  0  0  0  0  0  0  0  0  0  0  0
    7.2970   -1.0480    1.0453 H   0  0  0  0  0  0  0  0  0  0  0  0
   13.3732    7.5117   -0.0509 H   0  0  0  0  0  0  0  0  0  0  0  0
   11.1555    7.1267   -1.1571 H   0  0  0  0  0  0  0  0  0  0  0  0
   14.3192    3.3061   -0.5329 H   0  0  0  0  0  0  0  0  0  0  0  0
   12.1224    2.9324   -1.6294 H   0  0  0  0  0  0  0  0  0  0  0  0
   10.6668    3.1996   -3.3938 H   0  0  0  0  0  0  0  0  0  0  0  0
    9.9100    2.7349   -1.8100 H   0  0  0  0  0  0  0  0  0  0  0  0
    8.3896    4.2709   -4.0208 H   0  0  0  0  0  0  0  0  0  0  0  0
    8.4870    2.4612   -3.9703 H   0  0  0  0  0  0  0  0  0  0  0  0
    6.3926    3.5174   -2.9623 H   0  0  0  0  0  0  0  0  0  0  0  0
    7.4502    4.3324   -1.7240 H   0  0  0  0  0  0  0  0  0  0  0  0
    5.7901    1.2309   -2.6364 H   0  0  0  0  0  0  0  0  0  0  0  0
    7.5236    0.8293   -2.9998 H   0  0  0  0  0  0  0  0  0  0  0  0
    6.2201   -1.0078   -1.8327 H   0  0  0  0  0  0  0  0  0  0  0  0
    7.7713   -0.5269   -1.0433 H   0  0  0  0  0  0  0  0  0  0  0  0
    5.4356    2.7884   -0.5164 H   0  0  0  0  0  0  0  0  0  0  0  0
    6.9719    3.4101    0.2392 H   0  0  0  0  0  0  0  0  0  0  0  0
    7.5486    1.1844    1.0884 H   0  0  0  0  0  0  0  0  0  0  0  0
    5.8601    1.6149    1.5783 H   0  0  0  0  0  0  0  0  0  0  0  0
    4.3433   -0.0159    2.1546 H   0  0  0  0  0  0  0  0  0  0  0  0
    1.8506   -0.0111    2.1686 H   0  0  0  0  0  0  0  0  0  0  0  0
    4.3151   -0.0314   -2.1751 H   0  0  0  0  0  0  0  0  0  0  0  0
    1.8498   -0.0199   -2.1663 H   0  0  0  0  0  0  0  0  0  0  0  0
  1  2  1  0  0  0  0
  2  3  1  0  0  0  0
  3 47  1  0  0  0  0
  4  3  2  0  0  0  0
  4 46  1  0  0  0  0
  5  4  1  0  0  0  0
  6  5  1  6  0  0  0
  6 23  1  0  0  0  0
  6  7  1  0  0  0  0
  7 27  1  0  0  0  0
  8  6  1  0  0  0  0
  8 41  1  0  0  0  0
  9  8  1  0  0  0  0
  9 10  1  0  0  0  0
 10 24  1  0  0  0  0
 11 10  1  0  0  0  0
 11 37  1  0  0  0  0
 12 11  1  0  0  0  0
 12 13  1  0  0  0  0
 13 14  1  0  0  0  0
 13 33  1  0  0  0  0
 14 16  1  0  0  0  0
 15 14  2  0  0  0  0
 16 21  2  0  0  0  0
 16 17  1  0  0  0  0
 17 18  2  0  0  0  0
 18 19  1  0  0  0  0
 18 28  1  0  0  0  0
 19 20  1  0  0  0  0
 21 22  1  0  0  0  0
 22 19  2  0  0  0  0
 22 30  1  0  0  0  0
 23 44  1  0  0  0  0
 23 45  1  0  0  0  0
 24 23  1  0  0  0  0
 24 43  1  0  0  0  0
 25  2  2  0  0  0  0
 25 26  1  0  0  0  0
 26  5  2  0  0  0  0
 29 17  1  0  0  0  0
 31 21  1  0  0  0  0
 32 13  1  0  0  0  0
 34 12  1  0  0  0  0
 35 12  1  0  0  0  0
 36 11  1  0  0  0  0
 38  9  1  0  0  0  0
 39  9  1  0  0  0  0
 40  8  1  0  0  0  0
 42 24  1  0  0  0  0
 48 26  1  0  0  0  0
 49 25  1  0  0  0  0
M  END