B29
  Mrv0541 08111511043D          

 45 47  0  0  0  0            999 V2000
    0.0000    0.0000    0.0000 C   0  0  0  0  0  0  0  0  0  0  0  0
    1.3935    0.0000    0.0000 C   0  0  0  0  0  0  0  0  0  0  0  0
    2.0887    0.0000    1.2004 C   0  0  0  0  0  0  0  0  0  0  0  0
    1.4179   -0.0132    2.4505 C   0  0  0  0  0  0  0  0  0  0  0  0
    2.1675   -0.0968    3.6506 N   0  0  0  0  0  0  0  0  0  0  0  0
    1.9086    0.8668    4.6641 C   0  0  0  0  0  0  0  0  0  0  0  0
    2.8535    1.8499    5.0235 C   0  0  0  0  0  0  0  0  0  0  0  0
    2.5906    2.7273    6.0713 C   0  0  0  0  0  0  0  0  0  0  0  0
    3.5368   -0.5760    3.5912 C   0  0  2  0  0  0  0  0  0  0  0  0
    3.6795   -2.0182    3.1039 C   0  0  2  0  0  0  0  0  0  0  0  0
    3.1134   -2.9979    4.1290 C   0  0  1  0  0  0  0  0  0  0  0  0
    3.4594   -4.3900    3.8633 N   0  0  1  0  0  0  0  0  0  0  0  0
    3.1463   -5.2483    4.9847 C   0  0  0  0  0  0  0  0  0  0  0  0
    2.9250   -4.8863    2.6157 C   0  0  0  0  0  0  0  0  0  0  0  0
   -0.6741    0.0049    1.2128 C   0  0  0  0  0  0  0  0  0  0  0  0
   -0.0003    0.0002    2.4462 C   0  0  0  0  0  0  0  0  0  0  0  0
   -0.9012    0.0452    3.6341 C   0  0  2  0  0  0  0  0  0  0  0  0
   -0.3089   -0.2383    4.9972 C   0  0  1  0  0  0  0  0  0  0  0  0
    0.6904    0.7919    5.3805 C   0  0  0  0  0  0  0  0  0  0  0  0
    0.4456    1.6854    6.4244 C   0  0  0  0  0  0  0  0  0  0  0  0
    1.3896    2.6483    6.7737 C   0  0  0  0  0  0  0  0  0  0  0  0
   -0.5576   -0.0002   -0.9469 H   0  0  0  0  0  0  0  0  0  0  0  0
    1.9467    0.0061   -0.9508 H   0  0  0  0  0  0  0  0  0  0  0  0
    3.1889    0.0107    1.1590 H   0  0  0  0  0  0  0  0  0  0  0  0
    3.3366    3.4897    6.3410 H   0  0  0  0  0  0  0  0  0  0  0  0
    3.8057    1.9298    4.4774 H   0  0  0  0  0  0  0  0  0  0  0  0
    4.7729   -2.2122    2.9462 H   0  0  0  0  0  0  0  0  0  0  0  0
    3.1620   -2.1495    2.1183 H   0  0  0  0  0  0  0  0  0  0  0  0
    3.5355   -2.7357    5.1415 H   0  0  0  0  0  0  0  0  0  0  0  0
    1.9937   -2.8545    4.1834 H   0  0  0  0  0  0  0  0  0  0  0  0
    2.0469   -5.2915    5.2191 H   0  0  0  0  0  0  0  0  0  0  0  0
    3.5019   -6.2871    4.7564 H   0  0  0  0  0  0  0  0  0  0  0  0
    3.6885   -4.8760    5.8929 H   0  0  0  0  0  0  0  0  0  0  0  0
    1.8029   -4.8313    2.5590 H   0  0  0  0  0  0  0  0  0  0  0  0
    3.3537   -4.2835    1.7731 H   0  0  0  0  0  0  0  0  0  0  0  0
    3.2354   -5.9558    2.4824 H   0  0  0  0  0  0  0  0  0  0  0  0
    3.9603   -0.5136    4.6364 H   0  0  0  0  0  0  0  0  0  0  0  0
    4.1773    0.0858    2.9366 H   0  0  0  0  0  0  0  0  0  0  0  0
   -1.7762    0.0130    1.2154 H   0  0  0  0  0  0  0  0  0  0  0  0
   -1.7322   -0.6973    3.4667 H   0  0  0  0  0  0  0  0  0  0  0  0
   -1.3764    1.0666    3.6590 H   0  0  0  0  0  0  0  0  0  0  0  0
    1.1864    3.3440    7.6004 H   0  0  0  0  0  0  0  0  0  0  0  0
   -0.5033    1.6225    6.9786 H   0  0  0  0  0  0  0  0  0  0  0  0
   -1.1454   -0.2599    5.7477 H   0  0  0  0  0  0  0  0  0  0  0  0
    0.1695   -1.2554    5.0056 H   0  0  0  0  0  0  0  0  0  0  0  0
  1  2  2  0  0  0  0
  1 15  1  0  0  0  0
  2  3  1  0  0  0  0
  3  4  2  0  0  0  0
  4  5  1  0  0  0  0
  5  6  1  0  0  0  0
  6  7  2  0  0  0  0
  6 19  1  0  0  0  0
  7  8  1  0  0  0  0
  8 25  1  0  0  0  0
  8 21  2  0  0  0  0
  9  5  1  0  0  0  0
  9 37  1  0  0  0  0
 10  9  1  0  0  0  0
 10 11  1  0  0  0  0
 11 30  1  0  0  0  0
 11 29  1  0  0  0  0
 12 11  1  0  0  0  0
 12 13  1  0  0  0  0
 13 31  1  0  0  0  0
 13 33  1  0  0  0  0
 14 12  1  0  0  0  0
 15 39  1  0  0  0  0
 15 16  2  0  0  0  0
 16  4  1  0  0  0  0
 16 17  1  0  0  0  0
 17 41  1  0  0  0  0
 17 18  1  0  0  0  0
 18 45  1  0  0  0  0
 18 19  1  0  0  0  0
 18 44  1  0  0  0  0
 19 20  2  0  0  0  0
 20 21  1  0  0  0  0
 20 43  1  0  0  0  0
 21 42  1  0  0  0  0
 22  1  1  0  0  0  0
 23  2  1  0  0  0  0
 24  3  1  0  0  0  0
 26  7  1  0  0  0  0
 27 10  1  0  0  0  0
 28 10  1  0  0  0  0
 32 13  1  0  0  0  0
 34 14  1  0  0  0  0
 35 14  1  0  0  0  0
 36 14  1  0  0  0  0
 38  9  1  0  0  0  0
 40 17  1  0  0  0  0
M  END