B34
  Mrv0541 08111511043D          

 44 44  0  0  0  0            999 V2000
    0.0000    0.0000    0.0000 O   0  0  0  0  0  0  0  0  0  0  0  0
    1.4320    0.0000    0.0000 C   0  0  1  0  0  0  0  0  0  0  0  0
    1.8285    0.0000    1.4808 C   0  0  2  0  0  0  0  0  0  0  0  0
    1.4331    1.2121    2.1037 O   0  0  0  0  0  0  0  0  0  0  0  0
    3.3619   -0.0814    1.5885 C   0  0  1  0  0  0  0  0  0  0  0  0
    3.8122   -0.2524    2.9533 N   0  0  1  0  0  0  0  0  0  0  0  0
    5.2451   -0.0134    3.1258 C   0  0  2  0  0  0  0  0  0  0  0  0
    6.0856   -1.1798    2.6039 C   0  0  0  0  0  0  0  0  0  0  0  0
    5.6034    0.2323    4.5922 C   0  0  0  0  0  0  0  0  0  0  0  0
   -0.6048    0.0165   -1.2428 C   0  0  0  0  0  0  0  0  0  0  0  0
    0.0809    0.0194   -2.4618 C   0  0  0  0  0  0  0  0  0  0  0  0
   -0.6469    0.0341   -3.6517 C   0  0  0  0  0  0  0  0  0  0  0  0
   -2.0436    0.0458   -3.6377 C   0  0  0  0  0  0  0  0  0  0  0  0
   -2.8141    0.0749   -4.9087 C   0  0  1  0  0  0  0  0  0  0  0  0
   -3.4443   -1.2811   -5.1937 C   0  0  1  0  0  0  0  0  0  0  0  0
   -4.2093   -1.1270   -6.3886 O   0  0  0  0  0  0  0  0  0  0  0  0
   -4.8488   -2.3284   -6.7813 C   0  0  0  0  0  0  0  0  0  0  0  0
   -2.0125    0.0291   -1.2107 C   0  0  0  0  0  0  0  0  0  0  0  0
   -2.7165    0.0444   -2.4070 C   0  0  0  0  0  0  0  0  0  0  0  0
    0.4755    1.2786    1.9956 H   0  0  0  0  0  0  0  0  0  0  0  0
    5.9090   -1.3411    1.5139 H   0  0  0  0  0  0  0  0  0  0  0  0
    5.8382   -2.1220    3.1481 H   0  0  0  0  0  0  0  0  0  0  0  0
    7.1663   -0.9481    2.7590 H   0  0  0  0  0  0  0  0  0  0  0  0
    5.3439   -0.6542    5.2187 H   0  0  0  0  0  0  0  0  0  0  0  0
    6.7010    0.4174    4.6728 H   0  0  0  0  0  0  0  0  0  0  0  0
    5.0632    1.1236    4.9921 H   0  0  0  0  0  0  0  0  0  0  0  0
    5.5626    0.9114    2.5450 H   0  0  0  0  0  0  0  0  0  0  0  0
    3.2893    0.3487    3.5654 H   0  0  0  0  0  0  0  0  0  0  0  0
    3.7073   -0.9767    0.9986 H   0  0  0  0  0  0  0  0  0  0  0  0
    3.7919    0.8430    1.1005 H   0  0  0  0  0  0  0  0  0  0  0  0
    1.3372   -0.8695    2.0003 H   0  0  0  0  0  0  0  0  0  0  0  0
    1.8130   -0.9194   -0.5134 H   0  0  0  0  0  0  0  0  0  0  0  0
    1.8098    0.9217   -0.5136 H   0  0  0  0  0  0  0  0  0  0  0  0
   -5.5597   -2.6743   -5.9905 H   0  0  0  0  0  0  0  0  0  0  0  0
   -5.4020   -2.0585   -7.7152 H   0  0  0  0  0  0  0  0  0  0  0  0
   -4.0949   -3.1277   -6.9891 H   0  0  0  0  0  0  0  0  0  0  0  0
   -2.6588   -2.0673   -5.3473 H   0  0  0  0  0  0  0  0  0  0  0  0
   -4.1180   -1.5944   -4.3522 H   0  0  0  0  0  0  0  0  0  0  0  0
   -3.6259    0.8485   -4.8482 H   0  0  0  0  0  0  0  0  0  0  0  0
   -2.1513    0.3577   -5.7686 H   0  0  0  0  0  0  0  0  0  0  0  0
   -0.1085    0.0385   -4.6120 H   0  0  0  0  0  0  0  0  0  0  0  0
    1.1787    0.0115   -2.4980 H   0  0  0  0  0  0  0  0  0  0  0  0
   -3.8173    0.0572   -2.3913 H   0  0  0  0  0  0  0  0  0  0  0  0
   -2.5324    0.0272   -0.2426 H   0  0  0  0  0  0  0  0  0  0  0  0
  1  2  1  0  0  0  0
  2  3  1  0  0  0  0
  3  5  1  0  0  0  0
  3 31  1  1  0  0  0
  3  4  1  0  0  0  0
  5  6  1  0  0  0  0
  6  7  1  0  0  0  0
  6 28  1  0  0  0  0
  7  9  1  0  0  0  0
  8  7  1  0  0  0  0
  8 23  1  0  0  0  0
  8 22  1  0  0  0  0
  9 25  1  0  0  0  0
  9 26  1  0  0  0  0
  9 24  1  0  0  0  0
 10  1  1  0  0  0  0
 10 18  1  0  0  0  0
 11 10  2  0  0  0  0
 12 11  1  0  0  0  0
 12 13  2  0  0  0  0
 13 19  1  0  0  0  0
 14 13  1  0  0  0  0
 14 39  1  0  0  0  0
 15 14  1  0  0  0  0
 15 38  1  0  0  0  0
 16 15  1  0  0  0  0
 17 16  1  0  0  0  0
 17 34  1  0  0  0  0
 18 44  1  0  0  0  0
 19 18  2  0  0  0  0
 19 43  1  0  0  0  0
 20  4  1  0  0  0  0
 21  8  1  0  0  0  0
 27  7  1  0  0  0  0
 29  5  1  0  0  0  0
 30  5  1  0  0  0  0
 32  2  1  0  0  0  0
 33  2  1  0  0  0  0
 35 17  1  0  0  0  0
 36 17  1  0  0  0  0
 37 15  1  0  0  0  0
 40 14  1  0  0  0  0
 41 12  1  0  0  0  0
 42 11  1  0  0  0  0
M  END