B35
  Mrv0541 08111511043D          

 21 21  0  0  0  0            999 V2000
    0.0000    0.0000    0.0000 C   0  0  0  0  0  0  0  0  0  0  0  0
    1.4247    0.0000    0.0000 C   0  0  0  0  0  0  0  0  0  0  0  0
    2.3002    0.0000    1.1609 N   0  3  0  0  0  0  0  0  0  0  0  0
    1.7924   -0.0381    2.2499 O   0  0  0  0  0  0  0  0  0  0  0  0
    3.4964    0.0440    1.0149 O   0  5  0  0  0  0  0  0  0  0  0  0
    1.8278   -0.0042   -1.3554 N   0  0  0  0  0  0  0  0  0  0  0  0
    3.1709    0.0175   -1.8628 C   0  0  2  0  0  0  0  0  0  0  0  0
    3.7934    1.4157   -1.9896 C   0  0  1  0  0  0  0  0  0  0  0  0
    3.1792    2.0500   -3.0985 O   0  0  0  0  0  0  0  0  0  0  0  0
   -0.4620    0.0132   -1.2936 N   0  0  0  0  0  0  0  0  0  0  0  0
    0.6452    0.0217   -2.1053 C   0  0  0  0  0  0  0  0  0  0  0  0
    0.6307    0.0501   -3.5907 C   0  0  0  0  0  0  0  0  0  0  0  0
   -0.6581   -0.0096    0.8728 H   0  0  0  0  0  0  0  0  0  0  0  0
    3.1560   -0.4612   -2.8850 H   0  0  0  0  0  0  0  0  0  0  0  0
    3.8269   -0.5893   -1.1729 H   0  0  0  0  0  0  0  0  0  0  0  0
    3.6494    2.0123   -1.0508 H   0  0  0  0  0  0  0  0  0  0  0  0
    4.8929    1.2925   -2.1867 H   0  0  0  0  0  0  0  0  0  0  0  0
    3.4526    2.9745   -3.0811 H   0  0  0  0  0  0  0  0  0  0  0  0
    0.9888   -0.9310   -3.9923 H   0  0  0  0  0  0  0  0  0  0  0  0
   -0.4079    0.2348   -3.9616 H   0  0  0  0  0  0  0  0  0  0  0  0
    1.3046    0.8652   -3.9631 H   0  0  0  0  0  0  0  0  0  0  0  0
  1 13  1  0  0  0  0
  2  1  2  0  0  0  0
  2  3  1  0  0  0  0
  3  4  2  0  0  0  0
  5  3  1  0  0  0  0
  6  2  1  0  0  0  0
  7  6  1  0  0  0  0
  7 15  1  0  0  0  0
  8  7  1  0  0  0  0
  8 16  1  0  0  0  0
  9  8  1  0  0  0  0
  9 18  1  0  0  0  0
 10  1  1  0  0  0  0
 11  6  1  0  0  0  0
 11 10  2  0  0  0  0
 12 11  1  0  0  0  0
 14  7  1  0  0  0  0
 17  8  1  0  0  0  0
 19 12  1  0  0  0  0
 20 12  1  0  0  0  0
 21 12  1  0  0  0  0
M  CHG  2   3   1   5  -1
M  END