B36
  Mrv0541 08111511043D          

 31 32  0  0  0  0            999 V2000
    0.0000    0.0000    0.0000 C   0  0  0  0  0  0  0  0  0  0  0  0
    1.3951    0.0000    0.0000 C   0  0  0  0  0  0  0  0  0  0  0  0
    2.0749    0.0000    1.2237 C   0  0  0  0  0  0  0  0  0  0  0  0
    1.3042   -0.0132    2.4113 C   0  0  0  0  0  0  0  0  0  0  0  0
    3.5472   -0.0280    1.3360 C   0  0  0  0  0  0  0  0  0  0  0  0
    4.3817    0.7766    0.3344 C   0  0  2  0  0  0  0  0  0  0  0  0
    4.4739    0.0112   -0.9529 C   0  0  0  0  0  0  0  0  0  0  0  0
    4.2221    0.5837   -2.2045 C   0  0  0  0  0  0  0  0  0  0  0  0
    4.3733   -0.1955   -3.3537 C   0  0  0  0  0  0  0  0  0  0  0  0
    4.7762   -1.5340   -3.2132 C   0  0  0  0  0  0  0  0  0  0  0  0
    4.8755   -1.3473   -0.9225 C   0  0  0  0  0  0  0  0  0  0  0  0
    5.0246   -2.1090   -2.0190 N   0  0  0  0  0  0  0  0  0  0  0  0
    5.7945    0.9517    0.8978 C   0  0  0  0  0  0  0  0  0  0  0  0
    3.7690    2.1598    0.1641 C   0  0  0  0  0  0  0  0  0  0  0  0
    4.0960   -0.6678    2.2407 O   0  0  0  0  0  0  0  0  0  0  0  0
   -0.6731    0.0025    1.2351 C   0  0  0  0  0  0  0  0  0  0  0  0
   -0.0400   -0.0031    2.4252 N   0  0  0  0  0  0  0  0  0  0  0  0
   -0.5645   -0.0063   -0.9414 H   0  0  0  0  0  0  0  0  0  0  0  0
    1.9558   -0.0095   -0.9488 H   0  0  0  0  0  0  0  0  0  0  0  0
    1.8064   -0.0392    3.3974 H   0  0  0  0  0  0  0  0  0  0  0  0
    4.1853    0.2278   -4.3490 H   0  0  0  0  0  0  0  0  0  0  0  0
    4.9098   -2.1842   -4.0962 H   0  0  0  0  0  0  0  0  0  0  0  0
    3.9133    1.6357   -2.2952 H   0  0  0  0  0  0  0  0  0  0  0  0
    5.0858   -1.8420    0.0460 H   0  0  0  0  0  0  0  0  0  0  0  0
    6.4266    1.5163    0.1728 H   0  0  0  0  0  0  0  0  0  0  0  0
    5.7499    1.5137    1.8610 H   0  0  0  0  0  0  0  0  0  0  0  0
    6.2588   -0.0453    1.0909 H   0  0  0  0  0  0  0  0  0  0  0  0
    3.6446    2.6424    1.1640 H   0  0  0  0  0  0  0  0  0  0  0  0
    4.4410    2.8026   -0.4545 H   0  0  0  0  0  0  0  0  0  0  0  0
    2.7693    2.1016   -0.3289 H   0  0  0  0  0  0  0  0  0  0  0  0
   -1.7774    0.0052    1.2796 H   0  0  0  0  0  0  0  0  0  0  0  0
  1 16  1  0  0  0  0
  2  1  2  0  0  0  0
  2  3  1  0  0  0  0
  3  5  1  0  0  0  0
  3  4  2  0  0  0  0
  4 17  1  0  0  0  0
  4 20  1  0  0  0  0
  5 15  2  0  0  0  0
  6  5  1  0  0  0  0
  6 13  1  0  0  0  0
  7  6  1  0  0  0  0
  7 11  1  0  0  0  0
  8  7  2  0  0  0  0
  9  8  1  0  0  0  0
  9 10  2  0  0  0  0
 10 12  1  0  0  0  0
 11 24  1  0  0  0  0
 12 11  2  0  0  0  0
 13 27  1  0  0  0  0
 13 26  1  0  0  0  0
 14  6  1  0  0  0  0
 14 28  1  0  0  0  0
 16 31  1  0  0  0  0
 16 17  2  0  0  0  0
 18  1  1  0  0  0  0
 19  2  1  0  0  0  0
 21  9  1  0  0  0  0
 22 10  1  0  0  0  0
 23  8  1  0  0  0  0
 25 13  1  0  0  0  0
 29 14  1  0  0  0  0
 30 14  1  0  0  0  0
M  END