B37
  Mrv0541 08111511043D          

 36 39  0  0  0  0            999 V2000
    0.0000    0.0000    0.0000 C   0  0  0  0  0  0  0  0  0  0  0  0
    1.3955    0.0000    0.0000 C   0  0  0  0  0  0  0  0  0  0  0  0
    2.0989    0.0000    1.1991 C   0  0  0  0  0  0  0  0  0  0  0  0
    1.3980    0.0036    2.4220 C   0  0  0  0  0  0  0  0  0  0  0  0
    2.0967   -0.0079    3.5807 F   0  0  0  0  0  0  0  0  0  0  0  0
   -0.6978    0.0037    1.2052 C   0  0  0  0  0  0  0  0  0  0  0  0
   -0.0129    0.0190    2.4241 C   0  0  0  0  0  0  0  0  0  0  0  0
   -0.7770    0.0177    3.7015 C   0  0  0  0  0  0  0  0  0  0  0  0
   -0.8677    1.3496    4.3521 C   0  0  0  0  0  0  0  0  0  0  0  0
   -1.0497    2.4608    3.5182 C   0  0  0  0  0  0  0  0  0  0  0  0
   -1.1652    3.7438    4.0492 C   0  0  0  0  0  0  0  0  0  0  0  0
   -1.3856    5.0717    3.0152 Cl  0  0  0  0  0  0  0  0  0  0  0  0
   -0.8017    1.5380    5.7554 C   0  0  0  0  0  0  0  0  0  0  0  0
   -0.9306    2.8488    6.2735 C   0  0  0  0  0  0  0  0  0  0  0  0
   -1.1044    3.9384    5.4325 C   0  0  0  0  0  0  0  0  0  0  0  0
   -0.6297    0.4586    6.6391 N   0  0  0  0  0  0  0  0  0  0  0  0
    0.0620    0.4419    7.8803 C   0  0  0  0  0  0  0  0  0  0  0  0
    0.9106    1.5530    8.3814 C   0  0  0  0  0  0  0  0  0  0  0  0
   -1.3075   -1.0929    4.0878 N   0  0  0  0  0  0  0  0  0  0  0  0
   -2.0325   -1.2173    5.3237 C   0  0  2  0  0  0  0  0  0  0  0  0
   -1.2636   -0.7955    6.5220 C   0  0  0  0  0  0  0  0  0  0  0  0
   -0.9350   -1.5132    7.6826 C   0  0  0  0  0  0  0  0  0  0  0  0
   -0.1220   -0.7446    8.5096 N   0  0  0  0  0  0  0  0  0  0  0  0
   -0.5508   -0.0095   -0.9520 H   0  0  0  0  0  0  0  0  0  0  0  0
    1.9457   -0.0051   -0.9533 H   0  0  0  0  0  0  0  0  0  0  0  0
    3.1984   -0.0094    1.2107 H   0  0  0  0  0  0  0  0  0  0  0  0
   -1.7987   -0.0130    1.2059 H   0  0  0  0  0  0  0  0  0  0  0  0
   -1.1001    2.3088    2.4260 H   0  0  0  0  0  0  0  0  0  0  0  0
   -0.9086    3.0162    7.3631 H   0  0  0  0  0  0  0  0  0  0  0  0
   -1.2012    4.9497    5.8583 H   0  0  0  0  0  0  0  0  0  0  0  0
    1.3030    2.1736    7.5386 H   0  0  0  0  0  0  0  0  0  0  0  0
    0.3143    2.2030    9.0702 H   0  0  0  0  0  0  0  0  0  0  0  0
    1.7780    1.1354    8.9527 H   0  0  0  0  0  0  0  0  0  0  0  0
   -1.2309   -2.5257    7.9563 H   0  0  0  0  0  0  0  0  0  0  0  0
   -2.2784   -2.3144    5.4317 H   0  0  0  0  0  0  0  0  0  0  0  0
   -3.0075   -0.6466    5.2754 H   0  0  0  0  0  0  0  0  0  0  0  0
  1  2  2  0  0  0  0
  1  6  1  0  0  0  0
  2  3  1  0  0  0  0
  3 26  1  0  0  0  0
  3  4  2  0  0  0  0
  4  7  1  0  0  0  0
  4  5  1  0  0  0  0
  6 27  1  0  0  0  0
  6  7  2  0  0  0  0
  7  8  1  0  0  0  0
  8 19  2  0  0  0  0
  8  9  1  0  0  0  0
  9 13  1  0  0  0  0
 10  9  2  0  0  0  0
 10 11  1  0  0  0  0
 11 15  2  0  0  0  0
 12 11  1  0  0  0  0
 13 14  2  0  0  0  0
 13 16  1  0  0  0  0
 14 29  1  0  0  0  0
 15 14  1  0  0  0  0
 15 30  1  0  0  0  0
 16 17  1  0  0  0  0
 17 18  1  0  0  0  0
 17 23  2  0  0  0  0
 18 33  1  0  0  0  0
 18 32  1  0  0  0  0
 19 20  1  0  0  0  0
 20 35  1  0  0  0  0
 20 21  1  0  0  0  0
 21 16  1  0  0  0  0
 21 22  2  0  0  0  0
 22 34  1  0  0  0  0
 22 23  1  0  0  0  0
 24  1  1  0  0  0  0
 25  2  1  0  0  0  0
 28 10  1  0  0  0  0
 31 18  1  0  0  0  0
 36 20  1  0  0  0  0
M  END