B38
  Mrv0541 08111511043D          

 30 32  0  0  0  0            999 V2000
    0.0000    0.0000    0.0000 N   0  0  2  0  0  0  0  0  0  0  0  0
    1.4440    0.0000    0.0000 C   0  0  0  0  0  0  0  0  0  0  0  0
    2.0154    0.0000    1.1850 N   0  0  0  0  0  0  0  0  0  0  0  0
    2.1707    0.0813   -1.3139 C   0  0  2  0  0  0  0  0  0  0  0  0
    1.7532   -1.0053   -2.2467 C   0  0  0  0  0  0  0  0  0  0  0  0
    2.3073   -2.3180   -2.1371 C   0  0  0  0  0  0  0  0  0  0  0  0
    1.9156   -3.3092   -3.0758 C   0  0  0  0  0  0  0  0  0  0  0  0
    0.9778   -2.9833   -4.0931 C   0  0  0  0  0  0  0  0  0  0  0  0
    2.4674   -4.6170   -2.9841 C   0  0  0  0  0  0  0  0  0  0  0  0
    3.3680   -4.9282   -1.9965 C   0  0  0  0  0  0  0  0  0  0  0  0
    3.2376   -2.6751   -1.1207 C   0  0  0  0  0  0  0  0  0  0  0  0
    3.7541   -3.9457   -1.0540 C   0  0  0  0  0  0  0  0  0  0  0  0
    0.8418   -0.7265   -3.2442 C   0  0  0  0  0  0  0  0  0  0  0  0
    0.4508   -1.7189   -4.1715 C   0  0  0  0  0  0  0  0  0  0  0  0
   -0.3906   -0.1388    1.4074 C   0  0  2  0  0  0  0  0  0  0  0  0
    0.9624   -0.0784    2.1966 C   0  0  2  0  0  0  0  0  0  0  0  0
    0.6863   -3.7636   -4.8123 H   0  0  0  0  0  0  0  0  0  0  0  0
    3.7973   -5.9383   -1.9242 H   0  0  0  0  0  0  0  0  0  0  0  0
    2.1557   -5.3713   -3.7222 H   0  0  0  0  0  0  0  0  0  0  0  0
    4.4731   -4.2146   -0.2657 H   0  0  0  0  0  0  0  0  0  0  0  0
    3.5337   -1.9191   -0.3760 H   0  0  0  0  0  0  0  0  0  0  0  0
   -0.2766   -1.4592   -4.9549 H   0  0  0  0  0  0  0  0  0  0  0  0
    0.4074    0.2818   -3.3328 H   0  0  0  0  0  0  0  0  0  0  0  0
    3.2809    0.0396   -1.1431 H   0  0  0  0  0  0  0  0  0  0  0  0
    1.9422    1.0869   -1.7658 H   0  0  0  0  0  0  0  0  0  0  0  0
    0.9992    0.8301    2.8506 H   0  0  0  0  0  0  0  0  0  0  0  0
    1.1143   -0.9886    2.8304 H   0  0  0  0  0  0  0  0  0  0  0  0
   -0.9384   -1.0935    1.6131 H   0  0  0  0  0  0  0  0  0  0  0  0
   -1.0503    0.7255    1.6765 H   0  0  0  0  0  0  0  0  0  0  0  0
   -0.4022   -0.6696   -0.6209 H   0  0  0  0  0  0  0  0  0  0  0  0
  1 15  1  0  0  0  0
  2  1  1  0  0  0  0
  2  3  2  0  0  0  0
  3 16  1  0  0  0  0
  4  2  1  0  0  0  0
  4 24  1  0  0  0  0
  5  4  1  0  0  0  0
  5  6  1  0  0  0  0
  6 11  2  0  0  0  0
  7  6  1  0  0  0  0
  7  9  2  0  0  0  0
  8  7  1  0  0  0  0
  9 10  1  0  0  0  0
 10 18  1  0  0  0  0
 10 12  2  0  0  0  0
 11 12  1  0  0  0  0
 11 21  1  0  0  0  0
 12 20  1  0  0  0  0
 13  5  2  0  0  0  0
 14  8  2  0  0  0  0
 14 13  1  0  0  0  0
 15 28  1  0  0  0  0
 15 29  1  0  0  0  0
 15 16  1  0  0  0  0
 16 27  1  0  0  0  0
 16 26  1  0  0  0  0
 17  8  1  0  0  0  0
 19  9  1  0  0  0  0
 22 14  1  0  0  0  0
 23 13  1  0  0  0  0
 25  4  1  0  0  0  0
 30  1  1  0  0  0  0
M  END