B4
  Mrv0541 08111511043D          

 26 27  0  0  0  0            999 V2000
    0.0000    0.0000    0.0000 C   0  0  0  0  0  0  0  0  0  0  0  0
    1.3941    0.0000    0.0000 C   0  0  0  0  0  0  0  0  0  0  0  0
    2.1058    0.0000    1.1951 C   0  0  0  0  0  0  0  0  0  0  0  0
    1.4159    0.0029    2.4295 C   0  0  0  0  0  0  0  0  0  0  0  0
    2.1925   -0.0756    3.6298 N   0  0  1  0  0  0  0  0  0  0  0  0
    3.2675    0.8944    3.8382 C   0  0  0  0  0  0  0  0  0  0  0  0
    3.3245    1.1257    5.3030 C   0  0  0  0  0  0  0  0  0  0  0  0
    3.9875    1.3429    2.9439 O   0  0  0  0  0  0  0  0  0  0  0  0
    1.5036   -0.2434    4.8585 N   0  0  2  0  0  0  0  0  0  0  0  0
    2.3148    0.3992    5.8739 C   0  0  0  0  0  0  0  0  0  0  0  0
    1.9859    0.2924    7.3081 C   0  0  0  0  0  0  0  0  0  0  0  0
    1.1267   -1.6214    5.1666 C   0  0  0  0  0  0  0  0  0  0  0  0
   -0.6854    0.0102    1.2123 C   0  0  0  0  0  0  0  0  0  0  0  0
    0.0064    0.0171    2.4213 C   0  0  0  0  0  0  0  0  0  0  0  0
   -0.5536   -0.0037   -0.9496 H   0  0  0  0  0  0  0  0  0  0  0  0
    1.9441    0.0010   -0.9533 H   0  0  0  0  0  0  0  0  0  0  0  0
    3.2082    0.0169    1.1745 H   0  0  0  0  0  0  0  0  0  0  0  0
    4.0487    1.7878    5.7680 H   0  0  0  0  0  0  0  0  0  0  0  0
    2.1663   -0.7507    7.6731 H   0  0  0  0  0  0  0  0  0  0  0  0
    2.6298    0.9938    7.8944 H   0  0  0  0  0  0  0  0  0  0  0  0
    0.9126    0.5513    7.4919 H   0  0  0  0  0  0  0  0  0  0  0  0
    0.5379   -1.5872    6.1205 H   0  0  0  0  0  0  0  0  0  0  0  0
    0.4733   -2.0081    4.3404 H   0  0  0  0  0  0  0  0  0  0  0  0
    2.0005   -2.3136    5.2925 H   0  0  0  0  0  0  0  0  0  0  0  0
   -1.7857    0.0190    1.2216 H   0  0  0  0  0  0  0  0  0  0  0  0
   -0.5692    0.0404    3.3587 H   0  0  0  0  0  0  0  0  0  0  0  0
  1  2  2  0  0  0  0
  1 13  1  0  0  0  0
  2  3  1  0  0  0  0
  3  4  2  0  0  0  0
  4  5  1  0  0  0  0
  5  6  1  0  0  0  0
  5  9  1  0  0  0  0
  6  7  1  0  0  0  0
  7 18  1  0  0  0  0
  7 10  2  0  0  0  0
  8  6  2  0  0  0  0
  9 12  1  0  0  0  0
  9 10  1  0  0  0  0
 10 11  1  0  0  0  0
 11 21  1  0  0  0  0
 11 19  1  0  0  0  0
 11 20  1  0  0  0  0
 12 24  1  0  0  0  0
 12 22  1  0  0  0  0
 13 25  1  0  0  0  0
 13 14  2  0  0  0  0
 14  4  1  0  0  0  0
 14 26  1  0  0  0  0
 15  1  1  0  0  0  0
 16  2  1  0  0  0  0
 17  3  1  0  0  0  0
 23 12  1  0  0  0  0
M  END