B41
  Mrv0541 08111511043D          

 42 42  0  0  0  0            999 V2000
    0.0000    0.0000    0.0000 C   0  0  0  0  0  0  0  0  0  0  0  0
    1.3924    0.0000    0.0000 C   0  0  0  0  0  0  0  0  0  0  0  0
    2.0938    0.0000    1.2055 C   0  0  0  0  0  0  0  0  0  0  0  0
    1.3960    0.0119    2.4169 C   0  0  0  0  0  0  0  0  0  0  0  0
    2.1237    0.1421    3.5875 O   0  0  0  0  0  0  0  0  0  0  0  0
    2.0683   -1.0163    4.4383 C   0  0  2  0  0  0  0  0  0  0  0  0
    2.4227   -0.5127    5.8426 C   0  0  1  0  0  0  0  0  0  0  0  0
    1.1572    0.0225    6.5357 C   0  0  1  0  0  0  0  0  0  0  0  0
    1.4559    0.7531    7.7501 N   0  0  2  0  0  0  0  0  0  0  0  0
    0.2602    1.1982    8.4666 C   0  0  2  0  0  0  0  0  0  0  0  0
    0.5127    2.4689    9.2790 C   0  0  0  0  0  0  0  0  0  0  0  0
   -0.2696    0.1135    9.4066 C   0  0  0  0  0  0  0  0  0  0  0  0
    2.9647   -1.6319    6.5272 O   0  0  0  0  0  0  0  0  0  0  0  0
   -0.7122    0.0041    1.1998 C   0  0  0  0  0  0  0  0  0  0  0  0
   -0.0204    0.0131    2.4158 C   0  0  0  0  0  0  0  0  0  0  0  0
   -0.6171    0.0090    3.6605 O   0  0  0  0  0  0  0  0  0  0  0  0
   -2.0520    0.0843    3.6645 C   0  0  2  0  0  0  0  0  0  0  0  0
   -2.4648    0.1325    5.0942 C   0  0  0  0  0  0  0  0  0  0  0  0
   -3.7402    0.1410    5.4716 C   0  0  0  0  0  0  0  0  0  0  0  0
   -0.5498   -0.0031   -0.9530 H   0  0  0  0  0  0  0  0  0  0  0  0
    1.9445   -0.0020   -0.9509 H   0  0  0  0  0  0  0  0  0  0  0  0
    3.1937    0.0046    1.2209 H   0  0  0  0  0  0  0  0  0  0  0  0
    3.2074    0.2922    5.7639 H   0  0  0  0  0  0  0  0  0  0  0  0
    0.5950    0.6431    5.7744 H   0  0  0  0  0  0  0  0  0  0  0  0
    0.5045   -0.8549    6.8087 H   0  0  0  0  0  0  0  0  0  0  0  0
   -0.4290    2.7614    9.8016 H   0  0  0  0  0  0  0  0  0  0  0  0
    1.3068    2.3003   10.0450 H   0  0  0  0  0  0  0  0  0  0  0  0
    0.8264    3.3113    8.6171 H   0  0  0  0  0  0  0  0  0  0  0  0
   -1.1970    0.4845    9.9046 H   0  0  0  0  0  0  0  0  0  0  0  0
   -0.5147   -0.8181    8.8430 H   0  0  0  0  0  0  0  0  0  0  0  0
    0.4848   -0.1343   10.1905 H   0  0  0  0  0  0  0  0  0  0  0  0
   -0.5709    1.4337    7.7272 H   0  0  0  0  0  0  0  0  0  0  0  0
    2.0464    1.5382    7.5455 H   0  0  0  0  0  0  0  0  0  0  0  0
    3.0454   -1.3797    7.4553 H   0  0  0  0  0  0  0  0  0  0  0  0
    2.8336   -1.7539    4.0827 H   0  0  0  0  0  0  0  0  0  0  0  0
    1.0489   -1.4775    4.4202 H   0  0  0  0  0  0  0  0  0  0  0  0
   -1.8105    0.0047    1.1758 H   0  0  0  0  0  0  0  0  0  0  0  0
   -4.0339    0.1805    6.5287 H   0  0  0  0  0  0  0  0  0  0  0  0
   -4.5747    0.1095    4.7589 H   0  0  0  0  0  0  0  0  0  0  0  0
   -1.6340    0.1627    5.8213 H   0  0  0  0  0  0  0  0  0  0  0  0
   -2.4703   -0.8228    3.1508 H   0  0  0  0  0  0  0  0  0  0  0  0
   -2.3776    1.0111    3.1196 H   0  0  0  0  0  0  0  0  0  0  0  0
  1  2  2  0  0  0  0
  1 14  1  0  0  0  0
  2  3  1  0  0  0  0
  3 22  1  0  0  0  0
  3  4  2  0  0  0  0
  4  5  1  0  0  0  0
  5  6  1  0  0  0  0
  6  7  1  0  0  0  0
  7 23  1  6  0  0  0
  7 13  1  0  0  0  0
  7  8  1  0  0  0  0
  8 25  1  0  0  0  0
  8  9  1  0  0  0  0
  9 10  1  0  0  0  0
 10 11  1  0  0  0  0
 10 12  1  0  0  0  0
 11 26  1  0  0  0  0
 11 27  1  0  0  0  0
 12 29  1  0  0  0  0
 12 31  1  0  0  0  0
 13 34  1  0  0  0  0
 14 15  2  0  0  0  0
 15  4  1  0  0  0  0
 15 16  1  0  0  0  0
 16 17  1  0  0  0  0
 17 18  1  0  0  0  0
 18 19  2  0  0  0  0
 18 40  1  0  0  0  0
 19 38  1  0  0  0  0
 20  1  1  0  0  0  0
 21  2  1  0  0  0  0
 24  8  1  0  0  0  0
 28 11  1  0  0  0  0
 30 12  1  0  0  0  0
 32 10  1  0  0  0  0
 33  9  1  0  0  0  0
 35  6  1  0  0  0  0
 36  6  1  0  0  0  0
 37 14  1  0  0  0  0
 39 19  1  0  0  0  0
 41 17  1  0  0  0  0
 42 17  1  0  0  0  0
M  END