B43
  Mrv0541 08111511043D          

 44 47  0  0  0  0            999 V2000
    0.0000    0.0000    0.0000 F   0  0  0  0  0  0  0  0  0  0  0  0
    1.3547    0.0000    0.0000 C   0  0  0  0  0  0  0  0  0  0  0  0
    2.0572    0.0000    1.2186 C   0  0  0  0  0  0  0  0  0  0  0  0
    3.4483    0.0003    1.2065 C   0  0  0  0  0  0  0  0  0  0  0  0
    4.1574    0.0001   -0.0011 C   0  0  0  0  0  0  0  0  0  0  0  0
    5.6542    0.0172    0.0134 C   0  0  1  0  0  0  0  0  0  0  0  0
    6.2444   -1.2200   -0.6666 C   0  0  1  0  0  0  0  0  0  0  0  0
    7.7758   -1.1245   -0.7295 C   0  0  1  0  0  0  0  0  0  0  0  0
    8.2446    0.1051   -1.3370 N   0  0  1  0  0  0  0  0  0  0  0  0
    5.8411   -2.5088    0.0424 C   0  0  2  0  0  0  0  0  0  0  0  0
    6.4136   -2.4801    1.3574 O   0  0  0  0  0  0  0  0  0  0  0  0
    6.1307   -3.5668    2.1623 C   0  0  0  0  0  0  0  0  0  0  0  0
    5.3454   -4.6633    1.7412 C   0  0  0  0  0  0  0  0  0  0  0  0
    5.1709   -5.6607    2.6798 C   0  0  0  0  0  0  0  0  0  0  0  0
    4.4557   -6.8453    2.5502 O   0  0  0  0  0  0  0  0  0  0  0  0
    4.5776   -7.5462    3.8114 C   0  0  2  0  0  0  0  0  0  0  0  0
    5.7384   -5.5938    3.9768 C   0  0  0  0  0  0  0  0  0  0  0  0
    5.3901   -6.7385    4.6920 O   0  0  0  0  0  0  0  0  0  0  0  0
    6.6969   -3.4936    3.4473 C   0  0  0  0  0  0  0  0  0  0  0  0
    6.5054   -4.5197    4.3830 C   0  0  0  0  0  0  0  0  0  0  0  0
    6.1721    1.2834   -0.6601 C   0  0  2  0  0  0  0  0  0  0  0  0
    7.6973    1.2967   -0.7187 C   0  0  2  0  0  0  0  0  0  0  0  0
    2.0566   -0.0001   -1.2195 C   0  0  0  0  0  0  0  0  0  0  0  0
    3.4472    0.0006   -1.2083 C   0  0  0  0  0  0  0  0  0  0  0  0
    9.2471    0.1348   -1.3081 H   0  0  0  0  0  0  0  0  0  0  0  0
    8.1744   -1.2616    0.3197 H   0  0  0  0  0  0  0  0  0  0  0  0
    8.1617   -1.9774   -1.3563 H   0  0  0  0  0  0  0  0  0  0  0  0
    5.1017   -8.5163    3.6289 H   0  0  0  0  0  0  0  0  0  0  0  0
    3.5587   -7.6511    4.2589 H   0  0  0  0  0  0  0  0  0  0  0  0
    4.8986   -4.7303    0.7431 H   0  0  0  0  0  0  0  0  0  0  0  0
    6.9456   -4.4665    5.3868 H   0  0  0  0  0  0  0  0  0  0  0  0
    7.2994   -2.6139    3.7148 H   0  0  0  0  0  0  0  0  0  0  0  0
    6.2399   -3.3989   -0.5124 H   0  0  0  0  0  0  0  0  0  0  0  0
    4.7236   -2.5718    0.1243 H   0  0  0  0  0  0  0  0  0  0  0  0
    5.8366   -1.2852   -1.7146 H   0  0  0  0  0  0  0  0  0  0  0  0
    8.0306    2.1781   -1.3362 H   0  0  0  0  0  0  0  0  0  0  0  0
    8.0893    1.4483    0.3311 H   0  0  0  0  0  0  0  0  0  0  0  0
    5.8278    2.1814   -0.0859 H   0  0  0  0  0  0  0  0  0  0  0  0
    5.7531    1.3580   -1.6973 H   0  0  0  0  0  0  0  0  0  0  0  0
    6.0111    0.0120    1.0845 H   0  0  0  0  0  0  0  0  0  0  0  0
    3.9954   -0.0022    2.1625 H   0  0  0  0  0  0  0  0  0  0  0  0
    1.5023   -0.0005    2.1676 H   0  0  0  0  0  0  0  0  0  0  0  0
    3.9938    0.0040   -2.1646 H   0  0  0  0  0  0  0  0  0  0  0  0
    1.5007    0.0010   -2.1678 H   0  0  0  0  0  0  0  0  0  0  0  0
  1  2  1  0  0  0  0
  2  3  1  0  0  0  0
  3 42  1  0  0  0  0
  4  3  2  0  0  0  0
  4 41  1  0  0  0  0
  5  4  1  0  0  0  0
  5  6  1  0  0  0  0
  6 40  1  1  0  0  0
  7  6  1  0  0  0  0
  7 35  1  6  0  0  0
  7 10  1  0  0  0  0
  8  7  1  0  0  0  0
  8 26  1  0  0  0  0
  9  8  1  0  0  0  0
  9 25  1  0  0  0  0
  9 22  1  0  0  0  0
 10 34  1  0  0  0  0
 10 11  1  0  0  0  0
 11 12  1  0  0  0  0
 12 19  1  0  0  0  0
 13 12  2  0  0  0  0
 13 14  1  0  0  0  0
 14 17  2  0  0  0  0
 15 14  1  0  0  0  0
 15 16  1  0  0  0  0
 16 29  1  0  0  0  0
 16 18  1  0  0  0  0
 17 20  1  0  0  0  0
 17 18  1  0  0  0  0
 19 32  1  0  0  0  0
 19 20  2  0  0  0  0
 20 31  1  0  0  0  0
 21  6  1  0  0  0  0
 21 38  1  0  0  0  0
 22 21  1  0  0  0  0
 22 37  1  0  0  0  0
 23  2  2  0  0  0  0
 23 24  1  0  0  0  0
 24  5  2  0  0  0  0
 27  8  1  0  0  0  0
 28 16  1  0  0  0  0
 30 13  1  0  0  0  0
 33 10  1  0  0  0  0
 36 22  1  0  0  0  0
 39 21  1  0  0  0  0
 43 24  1  0  0  0  0
 44 23  1  0  0  0  0
M  END