B46
  Mrv0541 08111511043D          

 38 39  0  0  0  0            999 V2000
    0.0000    0.0000    0.0000 C   0  0  0  0  0  0  0  0  0  0  0  0
    1.3997    0.0000    0.0000 C   0  0  0  0  0  0  0  0  0  0  0  0
    2.1021    0.0000    1.2043 C   0  0  0  0  0  0  0  0  0  0  0  0
    1.4156   -0.0010    2.4182 C   0  0  0  0  0  0  0  0  0  0  0  0
    0.0213   -0.0018    2.4247 C   0  0  0  0  0  0  0  0  0  0  0  0
   -0.6838   -0.0013    1.2223 C   0  0  0  0  0  0  0  0  0  0  0  0
   -0.7796   -0.0092   -1.2810 C   0  0  1  0  0  0  0  0  0  0  0  0
   -0.6530    1.3253   -1.9852 C   0  0  0  0  0  0  0  0  0  0  0  0
   -1.7576    2.2071   -1.9476 C   0  0  0  0  0  0  0  0  0  0  0  0
   -1.6586    3.4486   -2.5756 C   0  0  0  0  0  0  0  0  0  0  0  0
    0.5781    2.8487   -3.2123 C   0  0  0  0  0  0  0  0  0  0  0  0
   -0.4707    3.7858   -3.2240 C   0  0  0  0  0  0  0  0  0  0  0  0
    0.5048    1.6472   -2.6133 N   0  0  0  0  0  0  0  0  0  0  0  0
   -0.3604   -1.1832   -2.1598 C   0  0  2  0  0  0  0  0  0  0  0  0
   -1.3030   -1.3220   -3.3539 C   0  0  1  0  0  0  0  0  0  0  0  0
   -1.1183   -2.5500   -4.1174 N   0  0  2  0  0  0  0  0  0  0  0  0
    0.2203   -2.7130   -4.6368 C   0  0  0  0  0  0  0  0  0  0  0  0
   -2.1358   -2.7088   -5.1333 C   0  0  0  0  0  0  0  0  0  0  0  0
   -1.7840   -0.0033    1.2371 H   0  0  0  0  0  0  0  0  0  0  0  0
   -0.5249   -0.0032    3.3791 H   0  0  0  0  0  0  0  0  0  0  0  0
    1.9715   -0.0012    3.3668 H   0  0  0  0  0  0  0  0  0  0  0  0
    3.2019    0.0015    1.1945 H   0  0  0  0  0  0  0  0  0  0  0  0
    1.9485    0.0052   -0.9546 H   0  0  0  0  0  0  0  0  0  0  0  0
   -2.6798    1.9169   -1.4266 H   0  0  0  0  0  0  0  0  0  0  0  0
   -2.5051    4.1502   -2.5573 H   0  0  0  0  0  0  0  0  0  0  0  0
   -0.3498    4.7520   -3.7294 H   0  0  0  0  0  0  0  0  0  0  0  0
    1.5389    3.0704   -3.7112 H   0  0  0  0  0  0  0  0  0  0  0  0
   -1.8736   -0.1472   -1.0294 H   0  0  0  0  0  0  0  0  0  0  0  0
   -0.3871   -2.1181   -1.5400 H   0  0  0  0  0  0  0  0  0  0  0  0
    0.6937   -1.0412   -2.5125 H   0  0  0  0  0  0  0  0  0  0  0  0
   -2.3650   -1.3293   -2.9736 H   0  0  0  0  0  0  0  0  0  0  0  0
   -1.1845   -0.4072   -4.0074 H   0  0  0  0  0  0  0  0  0  0  0  0
    0.9332   -2.7985   -3.7753 H   0  0  0  0  0  0  0  0  0  0  0  0
    0.5506   -1.8600   -5.2912 H   0  0  0  0  0  0  0  0  0  0  0  0
    0.2710   -3.6603   -5.2351 H   0  0  0  0  0  0  0  0  0  0  0  0
   -2.1035   -1.9104   -5.9250 H   0  0  0  0  0  0  0  0  0  0  0  0
   -2.0007   -3.7060   -5.6281 H   0  0  0  0  0  0  0  0  0  0  0  0
   -3.1457   -2.6849   -4.6464 H   0  0  0  0  0  0  0  0  0  0  0  0
  1  6  1  0  0  0  0
  2  1  2  0  0  0  0
  2  3  1  0  0  0  0
  3  4  2  0  0  0  0
  4  5  1  0  0  0  0
  4 21  1  0  0  0  0
  5 20  1  0  0  0  0
  6  5  2  0  0  0  0
  6 19  1  0  0  0  0
  7  1  1  0  0  0  0
  7 28  1  1  0  0  0
  8  7  1  0  0  0  0
  8  9  1  0  0  0  0
  9 24  1  0  0  0  0
 10  9  2  0  0  0  0
 10 25  1  0  0  0  0
 11 13  1  0  0  0  0
 12 10  1  0  0  0  0
 12 11  2  0  0  0  0
 13  8  2  0  0  0  0
 14  7  1  0  0  0  0
 14 29  1  0  0  0  0
 15 14  1  0  0  0  0
 15 31  1  0  0  0  0
 16 15  1  0  0  0  0
 17 16  1  0  0  0  0
 17 33  1  0  0  0  0
 18 16  1  0  0  0  0
 18 38  1  0  0  0  0
 22  3  1  0  0  0  0
 23  2  1  0  0  0  0
 26 12  1  0  0  0  0
 27 11  1  0  0  0  0
 30 14  1  0  0  0  0
 32 15  1  0  0  0  0
 34 17  1  0  0  0  0
 35 17  1  0  0  0  0
 36 18  1  0  0  0  0
 37 18  1  0  0  0  0
M  END