B48
  Mrv0541 08111511043D          

 37 37  0  0  0  0            999 V2000
    0.0000    0.0000    0.0000 O   0  0  0  0  0  0  0  0  0  0  0  0
    1.4304    0.0000    0.0000 C   0  0  1  0  0  0  0  0  0  0  0  0
    2.0047    0.0000    1.4207 C   0  0  1  0  0  0  0  0  0  0  0  0
    1.8198   -1.2536    2.1334 N   0  0  1  0  0  0  0  0  0  0  0  0
    2.7809   -2.2741    1.7328 C   0  0  1  0  0  0  0  0  0  0  0  0
    2.2914   -3.6977    1.9490 C   0  0  0  0  0  0  0  0  0  0  0  0
    1.7516   -1.0833    3.5791 C   0  0  1  0  0  0  0  0  0  0  0  0
    0.4487   -0.4725    4.0705 C   0  0  0  0  0  0  0  0  0  0  0  0
   -0.6362    1.1856    0.2627 C   0  0  0  0  0  0  0  0  0  0  0  0
    0.0598    2.1902    0.4529 O   0  0  0  0  0  0  0  0  0  0  0  0
   -2.0985    1.0936    0.2655 C   0  0  0  0  0  0  0  0  0  0  0  0
   -2.8487    2.2670    0.4276 C   0  0  0  0  0  0  0  0  0  0  0  0
   -4.2341    2.2229    0.4341 C   0  0  0  0  0  0  0  0  0  0  0  0
   -4.9137    0.9867    0.2874 C   0  0  0  0  0  0  0  0  0  0  0  0
   -6.2980    0.9235    0.3773 N   0  0  2  0  0  0  0  0  0  0  0  0
   -2.7582   -0.1323    0.1146 C   0  0  0  0  0  0  0  0  0  0  0  0
   -4.1438   -0.1922    0.1199 C   0  0  0  0  0  0  0  0  0  0  0  0
    2.1740   -3.9306    3.0340 H   0  0  0  0  0  0  0  0  0  0  0  0
    1.3093   -3.8645    1.4454 H   0  0  0  0  0  0  0  0  0  0  0  0
    3.0415   -4.4028    1.5161 H   0  0  0  0  0  0  0  0  0  0  0  0
    2.9927   -2.1452    0.6324 H   0  0  0  0  0  0  0  0  0  0  0  0
    3.7647   -2.1456    2.2753 H   0  0  0  0  0  0  0  0  0  0  0  0
    0.3413    0.5880    3.7401 H   0  0  0  0  0  0  0  0  0  0  0  0
   -0.4309   -1.0485    3.6960 H   0  0  0  0  0  0  0  0  0  0  0  0
    0.4439   -0.4958    5.1871 H   0  0  0  0  0  0  0  0  0  0  0  0
    1.8561   -2.1020    4.0516 H   0  0  0  0  0  0  0  0  0  0  0  0
    2.6102   -0.4520    3.9573 H   0  0  0  0  0  0  0  0  0  0  0  0
    3.0982    0.2735    1.3366 H   0  0  0  0  0  0  0  0  0  0  0  0
    1.4898    0.8270    1.9890 H   0  0  0  0  0  0  0  0  0  0  0  0
    1.6772   -0.9361   -0.5682 H   0  0  0  0  0  0  0  0  0  0  0  0
    1.8114    0.9048   -0.5430 H   0  0  0  0  0  0  0  0  0  0  0  0
   -6.7240    0.1117   -0.0048 H   0  0  0  0  0  0  0  0  0  0  0  0
   -6.7858    1.7726    0.2113 H   0  0  0  0  0  0  0  0  0  0  0  0
   -4.8043    3.1545    0.5642 H   0  0  0  0  0  0  0  0  0  0  0  0
   -2.3219    3.2286    0.5486 H   0  0  0  0  0  0  0  0  0  0  0  0
   -4.6430   -1.1654    0.0031 H   0  0  0  0  0  0  0  0  0  0  0  0
   -2.1655   -1.0543   -0.0090 H   0  0  0  0  0  0  0  0  0  0  0  0
  1  2  1  0  0  0  0
  1  9  1  0  0  0  0
  2  3  1  0  0  0  0
  3 29  1  0  0  0  0
  3  4  1  0  0  0  0
  4  7  1  0  0  0  0
  5  4  1  0  0  0  0
  5  6  1  0  0  0  0
  5 22  1  0  0  0  0
  6 18  1  0  0  0  0
  7 27  1  0  0  0  0
  7 26  1  0  0  0  0
  7  8  1  0  0  0  0
  8 25  1  0  0  0  0
  9 11  1  0  0  0  0
  9 10  2  0  0  0  0
 11 12  1  0  0  0  0
 12 13  2  0  0  0  0
 12 35  1  0  0  0  0
 13 34  1  0  0  0  0
 14 13  1  0  0  0  0
 14 15  1  0  0  0  0
 16 11  2  0  0  0  0
 16 17  1  0  0  0  0
 17 14  2  0  0  0  0
 19  6  1  0  0  0  0
 20  6  1  0  0  0  0
 21  5  1  0  0  0  0
 23  8  1  0  0  0  0
 24  8  1  0  0  0  0
 28  3  1  0  0  0  0
 30  2  1  0  0  0  0
 31  2  1  0  0  0  0
 32 15  1  0  0  0  0
 33 15  1  0  0  0  0
 36 17  1  0  0  0  0
 37 16  1  0  0  0  0
M  END