B50
  Mrv0541 08111511043D          

 52 53  0  0  0  0            999 V2000
    0.0000    0.0000    0.0000 O   0  0  0  0  0  0  0  0  0  0  0  0
    1.4338    0.0000    0.0000 C   0  0  1  0  0  0  0  0  0  0  0  0
    1.8518    0.0000    1.4768 C   0  0  2  0  0  0  0  0  0  0  0  0
    3.2392    0.2981    1.4607 O   0  0  0  0  0  0  0  0  0  0  0  0
    1.5527   -1.3701    2.1089 C   0  0  1  0  0  0  0  0  0  0  0  0
    1.8395   -1.3998    3.5283 N   0  0  2  0  0  0  0  0  0  0  0  0
    1.6081   -2.7017    4.1250 C   0  0  1  0  0  0  0  0  0  0  0  0
    1.8140   -2.7089    5.6390 C   0  0  1  0  0  0  0  0  0  0  0  0
    1.5076   -4.0746    6.1973 C   0  0  0  0  0  0  0  0  0  0  0  0
   -0.6040    0.1432   -1.2327 C   0  0  0  0  0  0  0  0  0  0  0  0
   -2.0104    0.2676   -1.2287 C   0  0  0  0  0  0  0  0  0  0  0  0
   -2.8374    0.2327   -0.0023 C   0  0  0  0  0  0  0  0  0  0  0  0
   -3.8912    0.8792    0.0695 O   0  0  0  0  0  0  0  0  0  0  0  0
   -2.3609   -0.6375    1.1259 C   0  0  1  0  0  0  0  0  0  0  0  0
   -3.5103   -1.1097    1.9950 C   0  0  2  0  0  0  0  0  0  0  0  0
   -3.0414   -1.8702    3.1845 C   0  0  0  0  0  0  0  0  0  0  0  0
   -3.3199   -1.4039    4.4747 C   0  0  0  0  0  0  0  0  0  0  0  0
   -2.9091   -2.1318    5.5906 C   0  0  0  0  0  0  0  0  0  0  0  0
   -2.2133   -3.3291    5.4286 C   0  0  0  0  0  0  0  0  0  0  0  0
   -2.3434   -3.0744    3.0290 C   0  0  0  0  0  0  0  0  0  0  0  0
   -1.9286   -3.7975    4.1455 C   0  0  0  0  0  0  0  0  0  0  0  0
   -2.6675    0.4409   -2.4548 C   0  0  0  0  0  0  0  0  0  0  0  0
   -1.9618    0.4636   -3.6541 C   0  0  0  0  0  0  0  0  0  0  0  0
    0.1095    0.1692   -2.4409 C   0  0  0  0  0  0  0  0  0  0  0  0
   -0.5746    0.3250   -3.6435 C   0  0  0  0  0  0  0  0  0  0  0  0
    3.5865    0.0924    2.3377 H   0  0  0  0  0  0  0  0  0  0  0  0
    1.6731   -4.0853    7.3016 H   0  0  0  0  0  0  0  0  0  0  0  0
    2.1656   -4.8491    5.7344 H   0  0  0  0  0  0  0  0  0  0  0  0
    0.4427   -4.3514    5.9963 H   0  0  0  0  0  0  0  0  0  0  0  0
    2.8721   -2.4264    5.8796 H   0  0  0  0  0  0  0  0  0  0  0  0
    1.1466   -1.9477    6.1224 H   0  0  0  0  0  0  0  0  0  0  0  0
    0.5652   -3.0868    3.9060 H   0  0  0  0  0  0  0  0  0  0  0  0
    2.3353   -3.4237    3.6558 H   0  0  0  0  0  0  0  0  0  0  0  0
    1.3079   -0.6962    4.0078 H   0  0  0  0  0  0  0  0  0  0  0  0
    0.4745   -1.6183    1.8730 H   0  0  0  0  0  0  0  0  0  0  0  0
    2.2023   -2.1431    1.6090 H   0  0  0  0  0  0  0  0  0  0  0  0
    1.3015    0.8166    2.0237 H   0  0  0  0  0  0  0  0  0  0  0  0
    1.8097   -0.9171   -0.5216 H   0  0  0  0  0  0  0  0  0  0  0  0
    1.8245    0.9220   -0.5034 H   0  0  0  0  0  0  0  0  0  0  0  0
   -1.8897   -3.9036    6.3089 H   0  0  0  0  0  0  0  0  0  0  0  0
   -3.1370   -1.7602    6.6005 H   0  0  0  0  0  0  0  0  0  0  0  0
   -3.8701   -0.4602    4.6084 H   0  0  0  0  0  0  0  0  0  0  0  0
   -1.3788   -4.7414    4.0157 H   0  0  0  0  0  0  0  0  0  0  0  0
   -2.1265   -3.4508    2.0181 H   0  0  0  0  0  0  0  0  0  0  0  0
   -4.1890   -1.7652    1.3842 H   0  0  0  0  0  0  0  0  0  0  0  0
   -4.1173   -0.2186    2.3132 H   0  0  0  0  0  0  0  0  0  0  0  0
   -1.7966   -1.5151    0.7136 H   0  0  0  0  0  0  0  0  0  0  0  0
   -1.6309   -0.0355    1.7339 H   0  0  0  0  0  0  0  0  0  0  0  0
   -2.4974    0.5952   -4.6052 H   0  0  0  0  0  0  0  0  0  0  0  0
   -3.7635    0.5665   -2.4501 H   0  0  0  0  0  0  0  0  0  0  0  0
   -0.0116    0.3416   -4.5894 H   0  0  0  0  0  0  0  0  0  0  0  0
    1.2037    0.0677   -2.4530 H   0  0  0  0  0  0  0  0  0  0  0  0
  1  2  1  0  0  0  0
  2  3  1  0  0  0  0
  3 37  1  1  0  0  0
  3  5  1  0  0  0  0
  4  3  1  0  0  0  0
  4 26  1  0  0  0  0
  5  6  1  0  0  0  0
  6 34  1  0  0  0  0
  6  7  1  0  0  0  0
  7  8  1  0  0  0  0
  8 30  1  0  0  0  0
  8 31  1  0  0  0  0
  8  9  1  0  0  0  0
  9 27  1  0  0  0  0
 10  1  1  0  0  0  0
 10 11  1  0  0  0  0
 11 12  1  0  0  0  0
 12 13  2  0  0  0  0
 12 14  1  0  0  0  0
 14 48  1  0  0  0  0
 14 15  1  0  0  0  0
 15 46  1  0  0  0  0
 15 16  1  0  0  0  0
 16 17  1  0  0  0  0
 17 42  1  0  0  0  0
 17 18  2  0  0  0  0
 18 41  1  0  0  0  0
 19 18  1  0  0  0  0
 19 40  1  0  0  0  0
 20 16  2  0  0  0  0
 20 21  1  0  0  0  0
 21 19  2  0  0  0  0
 22 11  2  0  0  0  0
 22 50  1  0  0  0  0
 23 22  1  0  0  0  0
 23 25  2  0  0  0  0
 24 10  2  0  0  0  0
 25 24  1  0  0  0  0
 28  9  1  0  0  0  0
 29  9  1  0  0  0  0
 32  7  1  0  0  0  0
 33  7  1  0  0  0  0
 35  5  1  0  0  0  0
 36  5  1  0  0  0  0
 38  2  1  0  0  0  0
 39  2  1  0  0  0  0
 43 21  1  0  0  0  0
 44 20  1  0  0  0  0
 45 15  1  0  0  0  0
 47 14  1  0  0  0  0
 49 23  1  0  0  0  0
 51 25  1  0  0  0  0
 52 24  1  0  0  0  0
M  END