B51
  Mrv0541 08111511043D          

 27 27  0  0  0  0            999 V2000
    0.0000    0.0000    0.0000 O   0  0  0  0  0  0  0  0  0  0  0  0
    1.4219    0.0000    0.0000 C   0  0  2  0  0  0  0  0  0  0  0  0
    1.9847    0.0000    1.4522 C   0  0  1  0  0  0  0  0  0  0  0  0
    1.4863   -1.1308    2.2268 N   0  0  1  0  0  0  0  0  0  0  0  0
    2.0239   -2.4184    1.8787 C   0  0  0  0  0  0  0  0  0  0  0  0
    3.5054    0.1296    1.4074 C   0  0  0  0  0  0  0  0  0  0  0  0
    1.8568    1.2334   -0.7396 C   0  0  0  0  0  0  0  0  0  0  0  0
    2.9752    1.1838   -1.5798 C   0  0  0  0  0  0  0  0  0  0  0  0
    3.3796    2.3226   -2.2739 C   0  0  0  0  0  0  0  0  0  0  0  0
    2.6674    3.5147   -2.1391 C   0  0  0  0  0  0  0  0  0  0  0  0
    1.1416    2.4287   -0.6113 C   0  0  0  0  0  0  0  0  0  0  0  0
    1.5477    3.5654   -1.3096 C   0  0  0  0  0  0  0  0  0  0  0  0
    3.1375   -2.5008    2.0153 H   0  0  0  0  0  0  0  0  0  0  0  0
    1.7870   -2.6421    0.8053 H   0  0  0  0  0  0  0  0  0  0  0  0
    1.5306   -3.1936    2.5231 H   0  0  0  0  0  0  0  0  0  0  0  0
    1.6301   -0.9478    3.2028 H   0  0  0  0  0  0  0  0  0  0  0  0
    3.7859    1.1044    0.9406 H   0  0  0  0  0  0  0  0  0  0  0  0
    3.9356    0.0923    2.4368 H   0  0  0  0  0  0  0  0  0  0  0  0
    3.9570   -0.6929    0.8020 H   0  0  0  0  0  0  0  0  0  0  0  0
    1.5639    0.9259    1.9515 H   0  0  0  0  0  0  0  0  0  0  0  0
    2.9868    4.4114   -2.6897 H   0  0  0  0  0  0  0  0  0  0  0  0
    4.2595    2.2791   -2.9320 H   0  0  0  0  0  0  0  0  0  0  0  0
    3.5360    0.2438   -1.6908 H   0  0  0  0  0  0  0  0  0  0  0  0
    0.9801    4.5018   -1.2073 H   0  0  0  0  0  0  0  0  0  0  0  0
    0.2482    2.4544    0.0319 H   0  0  0  0  0  0  0  0  0  0  0  0
    1.7890   -0.9180   -0.5435 H   0  0  0  0  0  0  0  0  0  0  0  0
   -0.2878   -0.7365    0.5532 H   0  0  0  0  0  0  0  0  0  0  0  0
  1  2  1  0  0  0  0
  1 27  1  0  0  0  0
  2 26  1  6  0  0  0
  2  3  1  0  0  0  0
  3 20  1  1  0  0  0
  3  4  1  0  0  0  0
  4 16  1  0  0  0  0
  5  4  1  0  0  0  0
  5 13  1  0  0  0  0
  5 15  1  0  0  0  0
  6  3  1  0  0  0  0
  6 18  1  0  0  0  0
  7  2  1  0  0  0  0
  7 11  1  0  0  0  0
  8  7  2  0  0  0  0
  9  8  1  0  0  0  0
  9 10  2  0  0  0  0
 10 12  1  0  0  0  0
 11 25  1  0  0  0  0
 12 11  2  0  0  0  0
 12 24  1  0  0  0  0
 14  5  1  0  0  0  0
 17  6  1  0  0  0  0
 19  6  1  0  0  0  0
 21 10  1  0  0  0  0
 22  9  1  0  0  0  0
 23  8  1  0  0  0  0
M  END