B52
  Mrv0541 08111511043D          

 48 51  0  0  0  0            999 V2000
    0.0000    0.0000    0.0000 C   0  0  0  0  0  0  0  0  0  0  0  0
    1.3716    0.0000    0.0000 C   0  0  0  0  0  0  0  0  0  0  0  0
    2.0767    0.0000    1.2307 C   0  0  0  0  0  0  0  0  0  0  0  0
    1.4006    0.0022    2.4416 C   0  0  0  0  0  0  0  0  0  0  0  0
    3.4555   -0.0041    1.3258 O   0  0  0  0  0  0  0  0  0  0  0  0
    4.1749   -0.0069    0.0985 C   0  0  0  0  0  0  0  0  0  0  0  0
   -0.7364    0.0019    1.2268 C   0  0  0  0  0  0  0  0  0  0  0  0
   -0.0126    0.0077    2.4623 C   0  0  0  0  0  0  0  0  0  0  0  0
   -0.7698    0.0175    3.6801 C   0  0  0  0  0  0  0  0  0  0  0  0
   -2.1432    0.0075    3.6078 C   0  0  0  0  0  0  0  0  0  0  0  0
   -0.0723    0.0564    5.0137 C   0  0  2  0  0  0  0  0  0  0  0  0
    0.4357   -1.3566    5.3951 C   0  0  2  0  0  0  0  0  0  0  0  0
   -0.7033   -2.2889    5.8627 C   0  0  1  0  0  0  0  0  0  0  0  0
   -0.2738   -3.0000    7.1461 C   0  0  2  0  0  0  0  0  0  0  0  0
   -0.0458   -1.9295    8.2155 C   0  0  1  0  0  0  0  0  0  0  0  0
    1.5455   -1.3126    6.3771 N   0  0  2  0  0  0  0  0  0  0  0  0
    2.1071   -2.6705    6.4635 C   0  0  2  0  0  0  0  0  0  0  0  0
    1.0671   -3.7237    6.9253 C   0  0  2  0  0  0  0  0  0  0  0  0
    0.9458   -4.8296    5.9406 C   0  0  0  0  0  0  0  0  0  0  0  0
    1.0859   -6.1165    6.2500 C   0  0  0  0  0  0  0  0  0  0  0  0
    1.0220   -0.9468    7.7014 C   0  0  1  0  0  0  0  0  0  0  0  0
   -0.9453    0.5134    6.0396 O   0  0  0  0  0  0  0  0  0  0  0  0
   -2.1192   -0.0029    1.1790 N   0  0  0  0  0  0  0  0  0  0  0  0
   -2.7732   -0.0027    2.3243 C   0  0  0  0  0  0  0  0  0  0  0  0
    1.9747   -0.0064    3.3810 H   0  0  0  0  0  0  0  0  0  0  0  0
    5.2454   -0.0097    0.4273 H   0  0  0  0  0  0  0  0  0  0  0  0
    3.9434   -0.9250   -0.4939 H   0  0  0  0  0  0  0  0  0  0  0  0
    3.9486    0.9119   -0.4950 H   0  0  0  0  0  0  0  0  0  0  0  0
    1.9211   -0.0008   -0.9525 H   0  0  0  0  0  0  0  0  0  0  0  0
   -2.7619    0.0003    4.5172 H   0  0  0  0  0  0  0  0  0  0  0  0
   -1.0015   -1.3831    8.4126 H   0  0  0  0  0  0  0  0  0  0  0  0
    0.2874   -2.4032    9.1714 H   0  0  0  0  0  0  0  0  0  0  0  0
   -1.0583   -3.7275    7.4699 H   0  0  0  0  0  0  0  0  0  0  0  0
   -1.6342   -1.6976    6.0566 H   0  0  0  0  0  0  0  0  0  0  0  0
   -0.9303   -3.0369    5.0632 H   0  0  0  0  0  0  0  0  0  0  0  0
    0.9924   -6.9114    5.4986 H   0  0  0  0  0  0  0  0  0  0  0  0
    1.3026   -6.4657    7.2681 H   0  0  0  0  0  0  0  0  0  0  0  0
    0.7300   -4.5122    4.9061 H   0  0  0  0  0  0  0  0  0  0  0  0
    1.4002   -4.1407    7.9166 H   0  0  0  0  0  0  0  0  0  0  0  0
    2.9602   -2.6422    7.1938 H   0  0  0  0  0  0  0  0  0  0  0  0
    2.5249   -2.9464    5.4576 H   0  0  0  0  0  0  0  0  0  0  0  0
    0.5862    0.0870    7.6290 H   0  0  0  0  0  0  0  0  0  0  0  0
    1.8892   -0.9115    8.4151 H   0  0  0  0  0  0  0  0  0  0  0  0
    0.8762   -1.7770    4.4401 H   0  0  0  0  0  0  0  0  0  0  0  0
   -1.2073    1.4105    5.7994 H   0  0  0  0  0  0  0  0  0  0  0  0
    0.8039    0.7673    4.9472 H   0  0  0  0  0  0  0  0  0  0  0  0
   -3.8771   -0.0110    2.2600 H   0  0  0  0  0  0  0  0  0  0  0  0
   -0.5546   -0.0021   -0.9528 H   0  0  0  0  0  0  0  0  0  0  0  0
  1  2  2  0  0  0  0
  1  7  1  0  0  0  0
  2  3  1  0  0  0  0
  3  5  1  0  0  0  0
  3  4  2  0  0  0  0
  4  8  1  0  0  0  0
  4 25  1  0  0  0  0
  6  5  1  0  0  0  0
  6 26  1  0  0  0  0
  7  8  2  0  0  0  0
  8  9  1  0  0  0  0
  9 11  1  0  0  0  0
 10  9  2  0  0  0  0
 10 30  1  0  0  0  0
 11 46  1  6  0  0  0
 11 12  1  0  0  0  0
 11 22  1  0  0  0  0
 12 44  1  6  0  0  0
 12 13  1  0  0  0  0
 12 16  1  0  0  0  0
 13 34  1  0  0  0  0
 13 14  1  0  0  0  0
 14 33  1  1  0  0  0
 14 15  1  0  0  0  0
 15 31  1  0  0  0  0
 15 32  1  0  0  0  0
 16 17  1  1  0  0  0
 16 21  1  0  0  0  0
 17 18  1  0  0  0  0
 17 40  1  0  0  0  0
 18 14  1  0  0  0  0
 18 39  1  1  0  0  0
 19 18  1  0  0  0  0
 19 20  2  0  0  0  0
 20 37  1  0  0  0  0
 21 15  1  0  0  0  0
 21 43  1  0  0  0  0
 23  7  1  0  0  0  0
 23 24  2  0  0  0  0
 24 10  1  0  0  0  0
 27  6  1  0  0  0  0
 28  6  1  0  0  0  0
 29  2  1  0  0  0  0
 35 13  1  0  0  0  0
 36 20  1  0  0  0  0
 38 19  1  0  0  0  0
 41 17  1  0  0  0  0
 42 21  1  0  0  0  0
 45 22  1  0  0  0  0
 47 24  1  0  0  0  0
 48  1  1  0  0  0  0
M  END