B53
  Mrv0541 08111511043D          

 43 46  0  0  0  0            999 V2000
    0.0000    0.0000    0.0000 N   0  0  2  0  0  0  0  0  0  0  0  0
    1.4891    0.0000    0.0000 C   0  0  1  0  0  0  0  0  0  0  0  0
    1.9526    0.0000    1.4602 C   0  0  2  0  0  0  0  0  0  0  0  0
    1.2919   -1.0954    2.3042 C   0  0  2  0  0  0  0  0  0  0  0  0
   -0.0667   -1.6226    1.8238 C   0  0  1  0  0  0  0  0  0  0  0  0
   -0.2935   -1.4233    0.3208 C   0  0  2  0  0  0  0  0  0  0  0  0
    0.7240   -2.2433   -0.5117 C   0  0  1  0  0  0  0  0  0  0  0  0
    1.8933   -1.3114   -0.7193 C   0  0  2  0  0  0  0  0  0  0  0  0
    1.9865   -2.4611    0.1357 O   0  0  0  0  0  0  0  0  0  0  0  0
   -0.5861    0.4544   -1.2362 C   0  0  0  0  0  0  0  0  0  0  0  0
    1.0163   -0.5622    3.6237 O   0  0  0  0  0  0  0  0  0  0  0  0
    2.0535   -0.4660    4.5015 C   0  0  0  0  0  0  0  0  0  0  0  0
    1.6204    0.0763    5.8420 C   0  0  1  0  0  0  0  0  0  0  0  0
    2.0760   -0.9016    6.9354 C   0  0  2  0  0  0  0  0  0  0  0  0
    1.4606   -0.6127    8.1711 O   0  0  0  0  0  0  0  0  0  0  0  0
    2.1798    1.4437    6.0720 C   0  0  0  0  0  0  0  0  0  0  0  0
    3.5412    1.7056    5.8739 C   0  0  0  0  0  0  0  0  0  0  0  0
    4.0514    2.9796    6.1159 C   0  0  0  0  0  0  0  0  0  0  0  0
    3.2086    4.0001    6.5569 C   0  0  0  0  0  0  0  0  0  0  0  0
    1.8518    3.7443    6.7530 C   0  0  0  0  0  0  0  0  0  0  0  0
    1.3368    2.4715    6.5111 C   0  0  0  0  0  0  0  0  0  0  0  0
    1.7167    0.2862    8.4154 H   0  0  0  0  0  0  0  0  0  0  0  0
    3.1943   -0.8722    7.0281 H   0  0  0  0  0  0  0  0  0  0  0  0
    1.7423   -1.9452    6.6875 H   0  0  0  0  0  0  0  0  0  0  0  0
    3.1793   -0.8268    4.1506 O   0  0  0  0  0  0  0  0  0  0  0  0
    4.2017    0.8992    5.5128 H   0  0  0  0  0  0  0  0  0  0  0  0
    5.1214    3.1789    5.9560 H   0  0  0  0  0  0  0  0  0  0  0  0
    3.6128    5.0051    6.7473 H   0  0  0  0  0  0  0  0  0  0  0  0
    1.1838    4.5476    7.0972 H   0  0  0  0  0  0  0  0  0  0  0  0
    0.2642    2.2760    6.6630 H   0  0  0  0  0  0  0  0  0  0  0  0
    1.7247    1.0005    1.9135 H   0  0  0  0  0  0  0  0  0  0  0  0
    3.0625   -0.1509    1.4878 H   0  0  0  0  0  0  0  0  0  0  0  0
    2.0125   -1.9562    2.4114 H   0  0  0  0  0  0  0  0  0  0  0  0
   -0.1263   -2.7174    2.0494 H   0  0  0  0  0  0  0  0  0  0  0  0
   -0.8848   -1.1022    2.3891 H   0  0  0  0  0  0  0  0  0  0  0  0
    2.5960   -1.2843   -1.5591 H   0  0  0  0  0  0  0  0  0  0  0  0
    0.3772   -3.0503   -1.1660 H   0  0  0  0  0  0  0  0  0  0  0  0
   -1.3439   -1.6954    0.0436 H   0  0  0  0  0  0  0  0  0  0  0  0
    1.8965    0.8909   -0.5428 H   0  0  0  0  0  0  0  0  0  0  0  0
   -0.2913    1.5249   -1.3960 H   0  0  0  0  0  0  0  0  0  0  0  0
   -1.7024    0.3982   -1.1419 H   0  0  0  0  0  0  0  0  0  0  0  0
   -0.2731   -0.1407   -2.1371 H   0  0  0  0  0  0  0  0  0  0  0  0
    0.4925    0.1244    5.8591 H   0  0  0  0  0  0  0  0  0  0  0  0
  1  2  1  0  0  0  0
  1  6  1  0  0  0  0
  2 39  1  6  0  0  0
  2  3  1  0  0  0  0
  3 32  1  0  0  0  0
  3 31  1  0  0  0  0
  3  4  1  0  0  0  0
  4 33  1  1  0  0  0
  4 11  1  0  0  0  0
  5  4  1  0  0  0  0
  5 34  1  0  0  0  0
  5 35  1  0  0  0  0
  6  5  1  0  0  0  0
  6 38  1  6  0  0  0
  7  6  1  0  0  0  0
  7 37  1  6  0  0  0
  7  9  1  0  0  0  0
  8  2  1  0  0  0  0
  8  7  1  0  0  0  0
  8 36  1  6  0  0  0
  8  9  1  0  0  0  0
 10  1  1  0  0  0  0
 10 41  1  0  0  0  0
 11 12  1  0  0  0  0
 12 13  1  0  0  0  0
 13 43  1  1  0  0  0
 13 16  1  0  0  0  0
 13 14  1  0  0  0  0
 14 23  1  0  0  0  0
 14 15  1  0  0  0  0
 15 22  1  0  0  0  0
 16 21  1  0  0  0  0
 17 16  2  0  0  0  0
 17 18  1  0  0  0  0
 18 19  2  0  0  0  0
 19 28  1  0  0  0  0
 19 20  1  0  0  0  0
 20 29  1  0  0  0  0
 21 20  2  0  0  0  0
 21 30  1  0  0  0  0
 24 14  1  0  0  0  0
 25 12  2  0  0  0  0
 26 17  1  0  0  0  0
 27 18  1  0  0  0  0
 40 10  1  0  0  0  0
 42 10  1  0  0  0  0
M  END