B54
  Mrv0541 08111511043D          

 24 24  0  0  0  0            999 V2000
    0.0000    0.0000    0.0000 S   0  0  1  0  0  0  0  0  0  0  0  0
    1.4264    0.0000    0.0000 O   0  0  0  0  0  0  0  0  0  0  0  0
   -0.6008    0.0000   -1.2764 O   0  0  0  0  0  0  0  0  0  0  0  0
   -0.5036   -1.1936    0.8729 N   0  0  0  0  0  0  0  0  0  0  0  0
   -0.1047   -2.2076    1.5870 C   0  0  0  0  0  0  0  0  0  0  0  0
   -1.0258   -2.9489    2.3597 N   0  0  1  0  0  0  0  0  0  0  0  0
    1.2410   -2.6021    1.6294 N   0  0  0  0  0  0  0  0  0  0  0  0
   -0.5281    1.3606    0.8434 C   0  0  0  0  0  0  0  0  0  0  0  0
    0.3489    2.1035    1.6436 C   0  0  0  0  0  0  0  0  0  0  0  0
   -0.0678    3.2360    2.3221 C   0  0  0  0  0  0  0  0  0  0  0  0
   -1.4120    3.6791    2.2118 C   0  0  0  0  0  0  0  0  0  0  0  0
   -1.8258    4.8462    2.8263 N   0  0  0  0  0  0  0  0  0  0  0  0
   -1.8534    1.8001    0.7356 C   0  0  0  0  0  0  0  0  0  0  0  0
   -2.3030    2.9278    1.4019 C   0  0  0  0  0  0  0  0  0  0  0  0
   -1.9848   -2.7447    2.1799 H   0  0  0  0  0  0  0  0  0  0  0  0
   -0.8246   -3.9142    2.4857 H   0  0  0  0  0  0  0  0  0  0  0  0
    1.9169   -1.9882    1.2261 H   0  0  0  0  0  0  0  0  0  0  0  0
    1.5538   -3.2136    2.3415 H   0  0  0  0  0  0  0  0  0  0  0  0
   -2.8023    4.9897    2.9190 H   0  0  0  0  0  0  0  0  0  0  0  0
   -1.2576    5.2019    3.5565 H   0  0  0  0  0  0  0  0  0  0  0  0
    0.6504    3.7989    2.9358 H   0  0  0  0  0  0  0  0  0  0  0  0
    1.4035    1.7806    1.7208 H   0  0  0  0  0  0  0  0  0  0  0  0
   -3.3495    3.2464    1.2896 H   0  0  0  0  0  0  0  0  0  0  0  0
   -2.5520    1.2360    0.0917 H   0  0  0  0  0  0  0  0  0  0  0  0
  1  2  2  0  0  0  0
  1  8  1  0  0  0  0
  1  4  1  0  0  0  0
  3  1  2  0  0  0  0
  4  5  2  0  0  0  0
  5  7  1  0  0  0  0
  5  6  1  0  0  0  0
  6 16  1  0  0  0  0
  7 18  1  0  0  0  0
  8  9  1  0  0  0  0
  9 22  1  0  0  0  0
  9 10  2  0  0  0  0
 10 21  1  0  0  0  0
 11 10  1  0  0  0  0
 11 12  1  0  0  0  0
 12 19  1  0  0  0  0
 12 20  1  0  0  0  0
 13  8  2  0  0  0  0
 13 14  1  0  0  0  0
 14 11  2  0  0  0  0
 15  6  1  0  0  0  0
 17  7  1  0  0  0  0
 23 14  1  0  0  0  0
 24 13  1  0  0  0  0
M  END