B57
  Mrv0541 08111511043D          

 45 46  0  0  0  0            999 V2000
    0.0000    0.0000    0.0000 S   0  0  0  0  0  0  0  0  0  0  0  0
    1.6502    0.0000    0.0000 N   0  0  0  0  0  0  0  0  0  0  0  0
    2.0756    0.0000    1.2647 C   0  0  0  0  0  0  0  0  0  0  0  0
    3.4042    0.1236    1.7226 N   0  0  1  0  0  0  0  0  0  0  0  0
    3.8493   -0.9729    2.5809 C   0  0  1  0  0  0  0  0  0  0  0  0
    5.2586   -0.7177    3.1313 C   0  0  1  0  0  0  0  0  0  0  0  0
    6.1875   -0.4401    2.0909 O   0  0  0  0  0  0  0  0  0  0  0  0
    4.3871    0.4510    0.6909 C   0  0  2  0  0  0  0  0  0  0  0  0
    5.7821    0.6657    1.2922 C   0  0  2  0  0  0  0  0  0  0  0  0
   -0.2793   -0.0410    1.6321 N   0  0  0  0  0  0  0  0  0  0  0  0
    0.9052   -0.0306    2.2278 C   0  0  0  0  0  0  0  0  0  0  0  0
    1.1662   -0.0549    3.5680 O   0  0  0  0  0  0  0  0  0  0  0  0
    0.0089   -0.0137    4.4301 C   0  0  2  0  0  0  0  0  0  0  0  0
    0.5792    0.0474    5.8530 C   0  0  1  0  0  0  0  0  0  0  0  0
   -0.4843    0.5317    6.6569 O   0  0  0  0  0  0  0  0  0  0  0  0
    1.0449   -1.3537    6.2929 C   0  0  2  0  0  0  0  0  0  0  0  0
    1.7470   -1.3199    7.5571 N   0  0  1  0  0  0  0  0  0  0  0  0
    2.0504   -2.6353    8.1425 C   0  0  2  0  0  0  0  0  0  0  0  0
    2.7479   -3.6000    7.1681 C   0  0  0  0  0  0  0  0  0  0  0  0
    0.7729   -3.3244    8.6479 C   0  0  0  0  0  0  0  0  0  0  0  0
    2.9851   -2.4513    9.3530 C   0  0  0  0  0  0  0  0  0  0  0  0
    5.2506    0.1299    3.8661 H   0  0  0  0  0  0  0  0  0  0  0  0
    5.6507   -1.6493    3.6172 H   0  0  0  0  0  0  0  0  0  0  0  0
    3.1349   -1.0629    3.4465 H   0  0  0  0  0  0  0  0  0  0  0  0
    3.8556   -1.9512    2.0192 H   0  0  0  0  0  0  0  0  0  0  0  0
    6.5458    0.7143    0.4722 H   0  0  0  0  0  0  0  0  0  0  0  0
    5.8120    1.6041    1.9061 H   0  0  0  0  0  0  0  0  0  0  0  0
    4.0614    1.4016    0.1850 H   0  0  0  0  0  0  0  0  0  0  0  0
    4.4525   -0.3612   -0.0890 H   0  0  0  0  0  0  0  0  0  0  0  0
   -0.2153    0.4212    7.5777 H   0  0  0  0  0  0  0  0  0  0  0  0
    3.6835   -3.1463    6.7635 H   0  0  0  0  0  0  0  0  0  0  0  0
    3.0134   -4.5424    7.7032 H   0  0  0  0  0  0  0  0  0  0  0  0
    2.0740   -3.8570    6.3164 H   0  0  0  0  0  0  0  0  0  0  0  0
    0.1025   -3.5993    7.7996 H   0  0  0  0  0  0  0  0  0  0  0  0
    0.2151   -2.6571    9.3468 H   0  0  0  0  0  0  0  0  0  0  0  0
    1.0545   -4.2582    9.1907 H   0  0  0  0  0  0  0  0  0  0  0  0
    2.5173   -1.7817   10.1132 H   0  0  0  0  0  0  0  0  0  0  0  0
    3.1768   -3.4455    9.8217 H   0  0  0  0  0  0  0  0  0  0  0  0
    3.9623   -2.0141    9.0376 H   0  0  0  0  0  0  0  0  0  0  0  0
    2.5993   -0.7980    7.4614 H   0  0  0  0  0  0  0  0  0  0  0  0
    1.6731   -1.7734    5.4521 H   0  0  0  0  0  0  0  0  0  0  0  0
    0.1352   -2.0080    6.4049 H   0  0  0  0  0  0  0  0  0  0  0  0
    1.4352    0.7793    5.8836 H   0  0  0  0  0  0  0  0  0  0  0  0
   -0.6075   -0.9339    4.2714 H   0  0  0  0  0  0  0  0  0  0  0  0
   -0.5985    0.9023    4.2146 H   0  0  0  0  0  0  0  0  0  0  0  0
  1  2  1  0  0  0  0
  1 10  1  0  0  0  0
  2  3  2  0  0  0  0
  3  4  1  0  0  0  0
  3 11  1  0  0  0  0
  4  5  1  0  0  0  0
  5  6  1  0  0  0  0
  5 24  1  0  0  0  0
  6 23  1  0  0  0  0
  6 22  1  0  0  0  0
  7  6  1  0  0  0  0
  8  4  1  0  0  0  0
  8  9  1  0  0  0  0
  9  7  1  0  0  0  0
  9 27  1  0  0  0  0
 10 11  2  0  0  0  0
 11 12  1  0  0  0  0
 12 13  1  0  0  0  0
 13 14  1  0  0  0  0
 14 43  1  1  0  0  0
 14 16  1  0  0  0  0
 14 15  1  0  0  0  0
 15 30  1  0  0  0  0
 16 42  1  0  0  0  0
 16 17  1  0  0  0  0
 17 18  1  0  0  0  0
 18 20  1  0  0  0  0
 18 21  1  0  0  0  0
 19 18  1  0  0  0  0
 19 32  1  0  0  0  0
 20 36  1  0  0  0  0
 20 35  1  0  0  0  0
 21 38  1  0  0  0  0
 21 37  1  0  0  0  0
 25  5  1  0  0  0  0
 26  9  1  0  0  0  0
 28  8  1  0  0  0  0
 29  8  1  0  0  0  0
 31 19  1  0  0  0  0
 33 19  1  0  0  0  0
 34 20  1  0  0  0  0
 39 21  1  0  0  0  0
 40 17  1  0  0  0  0
 41 16  1  0  0  0  0
 44 13  1  0  0  0  0
 45 13  1  0  0  0  0
M  END