B59
  Mrv0541 08111511043D          

 24 26  0  0  0  0            999 V2000
    0.0000    0.0000    0.0000 Cl  0  0  0  0  0  0  0  0  0  0  0  0
    1.7009    0.0000    0.0000 C   0  0  0  0  0  0  0  0  0  0  0  0
    2.4027    0.0000    1.1927 C   0  0  0  0  0  0  0  0  0  0  0  0
    1.7863   -0.1003    2.4620 N   0  0  1  0  0  0  0  0  0  0  0  0
    1.6438    1.0803    3.2431 C   0  0  0  0  0  0  0  0  0  0  0  0
    2.6647    2.1256    3.2220 N   0  0  1  0  0  0  0  0  0  0  0  0
    2.2288    3.0903    4.2391 C   0  0  2  0  0  0  0  0  0  0  0  0
    0.6041    1.3068    4.0441 N   0  0  0  0  0  0  0  0  0  0  0  0
    0.8559    2.5494    4.7607 C   0  0  1  0  0  0  0  0  0  0  0  0
    3.8517   -0.0033    1.1137 C   0  0  0  0  0  0  0  0  0  0  0  0
    4.7398   -0.0132    2.1141 N   0  0  0  0  0  0  0  0  0  0  0  0
    6.2300   -0.0438    1.4446 S   0  0  0  0  0  0  0  0  0  0  0  0
    4.5095   -0.0232   -0.2269 C   0  0  0  0  0  0  0  0  0  0  0  0
    5.8446   -0.0455   -0.1425 N   0  0  0  0  0  0  0  0  0  0  0  0
    2.3425   -0.0160   -1.2794 C   0  0  0  0  0  0  0  0  0  0  0  0
    3.6955   -0.0243   -1.4057 C   0  0  0  0  0  0  0  0  0  0  0  0
    2.1014    4.0846    3.7381 H   0  0  0  0  0  0  0  0  0  0  0  0
    2.9664    3.1955    5.0752 H   0  0  0  0  0  0  0  0  0  0  0  0
    3.5872    1.7769    3.3822 H   0  0  0  0  0  0  0  0  0  0  0  0
    0.8822    2.3553    5.8639 H   0  0  0  0  0  0  0  0  0  0  0  0
    0.0338    3.2790    4.5423 H   0  0  0  0  0  0  0  0  0  0  0  0
    0.9313   -0.6317    2.4300 H   0  0  0  0  0  0  0  0  0  0  0  0
    4.1895   -0.0341   -2.3894 H   0  0  0  0  0  0  0  0  0  0  0  0
    1.7006   -0.0164   -2.1766 H   0  0  0  0  0  0  0  0  0  0  0  0
  1  2  1  0  0  0  0
  2  3  2  0  0  0  0
  3  4  1  0  0  0  0
  4  5  1  0  0  0  0
  5  8  2  0  0  0  0
  6  5  1  0  0  0  0
  6 19  1  0  0  0  0
  6  7  1  0  0  0  0
  7  9  1  0  0  0  0
  7 18  1  0  0  0  0
  8  9  1  0  0  0  0
  9 20  1  0  0  0  0
 10  3  1  0  0  0  0
 10 11  2  0  0  0  0
 12 11  1  0  0  0  0
 13 10  1  0  0  0  0
 13 14  2  0  0  0  0
 14 12  1  0  0  0  0
 15  2  1  0  0  0  0
 16 13  1  0  0  0  0
 16 15  2  0  0  0  0
 17  7  1  0  0  0  0
 21  9  1  0  0  0  0
 22  4  1  0  0  0  0
 23 16  1  0  0  0  0
 24 15  1  0  0  0  0
M  END