B60
  Mrv0541 08111511043D          

 48 51  0  0  0  0            999 V2000
    0.0000    0.0000    0.0000 C   0  0  0  0  0  0  0  0  0  0  0  0
    1.3916    0.0000    0.0000 C   0  0  0  0  0  0  0  0  0  0  0  0
    2.1128    0.0000    1.2154 C   0  0  0  0  0  0  0  0  0  0  0  0
    1.3795   -0.0104    2.4266 C   0  0  0  0  0  0  0  0  0  0  0  0
    3.5256    0.0949    1.2638 N   0  0  1  0  0  0  0  0  0  0  0  0
    4.1958   -0.9134    2.0721 C   0  0  2  0  0  0  0  0  0  0  0  0
    5.6984   -0.6196    2.2526 C   0  0  1  0  0  0  0  0  0  0  0  0
    6.3845   -0.3763    0.9907 N   0  0  2  0  0  0  0  0  0  0  0  0
    7.7964   -0.0741    1.1997 C   0  0  2  0  0  0  0  0  0  0  0  0
    8.6095   -0.0544   -0.0921 C   0  0  1  0  0  0  0  0  0  0  0  0
   10.1019   -0.2215    0.1712 C   0  0  1  0  0  0  0  0  0  0  0  0
   10.8023    0.8975    0.7859 N   0  0  0  0  0  0  0  0  0  0  0  0
   11.0466    2.0852   -0.0036 C   0  0  0  0  0  0  0  0  0  0  0  0
   11.1758    3.1311    0.9693 N   0  0  0  0  0  0  0  0  0  0  0  0
   11.3570    4.4910    0.8461 C   0  0  0  0  0  0  0  0  0  0  0  0
   11.3277    5.2869    1.9601 C   0  0  0  0  0  0  0  0  0  0  0  0
   11.2402    2.1863   -1.2226 O   0  0  0  0  0  0  0  0  0  0  0  0
   10.6242    1.2154    2.1062 N   0  0  0  0  0  0  0  0  0  0  0  0
   10.8813    2.5311    2.2426 C   0  0  0  0  0  0  0  0  0  0  0  0
   10.8750    3.3833    3.4144 C   0  0  0  0  0  0  0  0  0  0  0  0
   11.0910    4.7165    3.2571 C   0  0  0  0  0  0  0  0  0  0  0  0
    4.2015    0.3402    0.0013 C   0  0  2  0  0  0  0  0  0  0  0  0
    5.7053    0.6287    0.1866 C   0  0  2  0  0  0  0  0  0  0  0  0
   -0.7183   -0.0141    1.1920 C   0  0  0  0  0  0  0  0  0  0  0  0
   -0.0133   -0.0206    2.3986 C   0  0  0  0  0  0  0  0  0  0  0  0
   -0.8716   -0.0363    3.8697 Cl  0  0  0  0  0  0  0  0  0  0  0  0
   -0.5403    0.0049   -0.9592 H   0  0  0  0  0  0  0  0  0  0  0  0
    1.9164   -0.0009   -0.9671 H   0  0  0  0  0  0  0  0  0  0  0  0
    1.9004    0.0064    3.3965 H   0  0  0  0  0  0  0  0  0  0  0  0
    5.8149    0.2479    2.9661 H   0  0  0  0  0  0  0  0  0  0  0  0
    6.1647   -1.5265    2.7299 H   0  0  0  0  0  0  0  0  0  0  0  0
    8.2979   -0.9037   -0.7580 H   0  0  0  0  0  0  0  0  0  0  0  0
    8.4198    0.8982   -0.6522 H   0  0  0  0  0  0  0  0  0  0  0  0
   10.2725   -1.1218    0.8280 H   0  0  0  0  0  0  0  0  0  0  0  0
   10.6229   -0.3848   -0.8172 H   0  0  0  0  0  0  0  0  0  0  0  0
   11.4921    6.3686    1.8712 H   0  0  0  0  0  0  0  0  0  0  0  0
   11.5365    4.8589   -0.1803 H   0  0  0  0  0  0  0  0  0  0  0  0
   11.0873    5.3937    4.1254 H   0  0  0  0  0  0  0  0  0  0  0  0
   10.6862    2.9104    4.3875 H   0  0  0  0  0  0  0  0  0  0  0  0
    8.2124   -0.8755    1.8755 H   0  0  0  0  0  0  0  0  0  0  0  0
    7.9274    0.9155    1.7286 H   0  0  0  0  0  0  0  0  0  0  0  0
    4.0790   -1.9396    1.6165 H   0  0  0  0  0  0  0  0  0  0  0  0
    3.7292   -0.9314    3.0955 H   0  0  0  0  0  0  0  0  0  0  0  0
    6.1761    0.6265   -0.8363 H   0  0  0  0  0  0  0  0  0  0  0  0
    5.8238    1.6639    0.6220 H   0  0  0  0  0  0  0  0  0  0  0  0
    3.7376    1.2479   -0.4770 H   0  0  0  0  0  0  0  0  0  0  0  0
    4.0878   -0.5324   -0.7062 H   0  0  0  0  0  0  0  0  0  0  0  0
   -1.8175   -0.0197    1.1838 H   0  0  0  0  0  0  0  0  0  0  0  0
  1 24  1  0  0  0  0
  2  1  2  0  0  0  0
  2  3  1  0  0  0  0
  3  5  1  0  0  0  0
  3  4  2  0  0  0  0
  4 29  1  0  0  0  0
  5  6  1  0  0  0  0
  6  7  1  0  0  0  0
  6 43  1  0  0  0  0
  7 31  1  0  0  0  0
  7 30  1  0  0  0  0
  8  7  1  0  0  0  0
  8  9  1  0  0  0  0
  9 41  1  0  0  0  0
  9 40  1  0  0  0  0
 10  9  1  0  0  0  0
 10 11  1  0  0  0  0
 11 12  1  0  0  0  0
 11 34  1  0  0  0  0
 12 18  1  0  0  0  0
 13 12  1  0  0  0  0
 13 14  1  0  0  0  0
 14 19  1  0  0  0  0
 15 14  1  0  0  0  0
 15 16  2  0  0  0  0
 16 21  1  0  0  0  0
 17 13  2  0  0  0  0
 18 19  2  0  0  0  0
 19 20  1  0  0  0  0
 20 39  1  0  0  0  0
 21 20  2  0  0  0  0
 21 38  1  0  0  0  0
 22  5  1  0  0  0  0
 22 23  1  0  0  0  0
 23  8  1  0  0  0  0
 23 45  1  0  0  0  0
 24 25  2  0  0  0  0
 25  4  1  0  0  0  0
 25 26  1  0  0  0  0
 27  1  1  0  0  0  0
 28  2  1  0  0  0  0
 32 10  1  0  0  0  0
 33 10  1  0  0  0  0
 35 11  1  0  0  0  0
 36 16  1  0  0  0  0
 37 15  1  0  0  0  0
 42  6  1  0  0  0  0
 44 23  1  0  0  0  0
 46 22  1  0  0  0  0
 47 22  1  0  0  0  0
 48 24  1  0  0  0  0
M  END