B7
  Mrv0541 08111511043D          

 22 22  0  0  0  0            999 V2000
    0.0000    0.0000    0.0000 C   0  0  0  0  0  0  0  0  0  0  0  0
    1.3944    0.0000    0.0000 C   0  0  0  0  0  0  0  0  0  0  0  0
    2.0573    0.0000    1.2413 C   0  0  0  0  0  0  0  0  0  0  0  0
    1.4270    0.0009    2.4282 N   0  0  0  0  0  0  0  0  0  0  0  0
   -0.6765    0.0000    1.2203 C   0  0  0  0  0  0  0  0  0  0  0  0
    0.0693    0.0008    2.4200 C   0  0  0  0  0  0  0  0  0  0  0  0
   -0.6677    0.0111    3.7287 C   0  0  2  0  0  0  0  0  0  0  0  0
   -0.5399   -1.3475    4.4210 C   0  0  1  0  0  0  0  0  0  0  0  0
   -1.3210   -1.4261    5.6417 N   0  0  1  0  0  0  0  0  0  0  0  0
   -1.1188   -2.6489    6.3715 C   0  0  0  0  0  0  0  0  0  0  0  0
   -0.5601   -0.0001   -0.9463 H   0  0  0  0  0  0  0  0  0  0  0  0
    1.9658    0.0005   -0.9366 H   0  0  0  0  0  0  0  0  0  0  0  0
    3.1613    0.0003    1.2913 H   0  0  0  0  0  0  0  0  0  0  0  0
   -1.7744   -0.0014    1.2534 H   0  0  0  0  0  0  0  0  0  0  0  0
   -1.7485    0.2464    3.5405 H   0  0  0  0  0  0  0  0  0  0  0  0
   -0.2551    0.8189    4.3906 H   0  0  0  0  0  0  0  0  0  0  0  0
   -0.9215   -2.1492    3.7270 H   0  0  0  0  0  0  0  0  0  0  0  0
    0.5556   -1.5560    4.6045 H   0  0  0  0  0  0  0  0  0  0  0  0
   -1.4360   -3.5143    5.7320 H   0  0  0  0  0  0  0  0  0  0  0  0
   -0.0515   -2.8209    6.6851 H   0  0  0  0  0  0  0  0  0  0  0  0
   -1.7606   -2.6265    7.2911 H   0  0  0  0  0  0  0  0  0  0  0  0
   -1.1347   -0.6314    6.2252 H   0  0  0  0  0  0  0  0  0  0  0  0
  1  2  2  0  0  0  0
  1  5  1  0  0  0  0
  2  3  1  0  0  0  0
  3 13  1  0  0  0  0
  3  4  2  0  0  0  0
  5 14  1  0  0  0  0
  5  6  2  0  0  0  0
  6  4  1  0  0  0  0
  6  7  1  0  0  0  0
  7 16  1  0  0  0  0
  7  8  1  0  0  0  0
  8 18  1  0  0  0  0
  8  9  1  0  0  0  0
  9 22  1  0  0  0  0
  9 10  1  0  0  0  0
 10 20  1  0  0  0  0
 10 21  1  0  0  0  0
 11  1  1  0  0  0  0
 12  2  1  0  0  0  0
 15  7  1  0  0  0  0
 17  8  1  0  0  0  0
 19 10  1  0  0  0  0
M  END