B9
  Mrv0541 08111511043D          

 54 54  0  0  0  0            999 V2000
    0.0000    0.0000    0.0000 O   0  0  0  0  0  0  0  0  0  0  0  0
    1.4318    0.0000    0.0000 C   0  0  1  0  0  0  0  0  0  0  0  0
    1.8283    0.0000    1.4808 C   0  0  2  0  0  0  0  0  0  0  0  0
    1.4321    1.2118    2.1040 O   0  0  0  0  0  0  0  0  0  0  0  0
    3.3617   -0.0806    1.5887 C   0  0  2  0  0  0  0  0  0  0  0  0
    3.8124   -0.2499    2.9536 N   0  0  1  0  0  0  0  0  0  0  0  0
    5.2443   -0.0059    3.1263 C   0  0  1  0  0  0  0  0  0  0  0  0
    5.6018    0.2391    4.5931 C   0  0  0  0  0  0  0  0  0  0  0  0
    6.0891   -1.1685    2.6028 C   0  0  0  0  0  0  0  0  0  0  0  0
   -0.6054    0.0144   -1.2425 C   0  0  0  0  0  0  0  0  0  0  0  0
    0.0821    0.0191   -2.4616 C   0  0  0  0  0  0  0  0  0  0  0  0
   -0.6447    0.0336   -3.6510 C   0  0  0  0  0  0  0  0  0  0  0  0
   -2.0422    0.0370   -3.6334 C   0  0  0  0  0  0  0  0  0  0  0  0
   -2.7792    0.0198   -4.9304 C   0  0  1  0  0  0  0  0  0  0  0  0
   -4.1042    0.5088   -4.7143 O   0  0  0  0  0  0  0  0  0  0  0  0
   -4.8628    0.5226   -5.9222 C   0  0  1  0  0  0  0  0  0  0  0  0
   -6.2353    1.0724   -5.5420 C   0  0  1  0  0  0  0  0  0  0  0  0
   -6.9886    1.0917   -6.7501 O   0  0  0  0  0  0  0  0  0  0  0  0
   -8.2722    1.7125   -6.6029 C   0  0  2  0  0  0  0  0  0  0  0  0
   -9.2323    0.8031   -5.8595 C   0  0  0  0  0  0  0  0  0  0  0  0
   -8.7551    1.9886   -8.0162 C   0  0  0  0  0  0  0  0  0  0  0  0
   -2.0125    0.0229   -1.2106 C   0  0  0  0  0  0  0  0  0  0  0  0
   -2.7184    0.0328   -2.4071 C   0  0  0  0  0  0  0  0  0  0  0  0
    0.4748    1.2787    1.9939 H   0  0  0  0  0  0  0  0  0  0  0  0
    5.3457   -0.6493    5.2183 H   0  0  0  0  0  0  0  0  0  0  0  0
    6.6987    0.4283    4.6740 H   0  0  0  0  0  0  0  0  0  0  0  0
    5.0583    1.1278    4.9943 H   0  0  0  0  0  0  0  0  0  0  0  0
    5.9131   -1.3288    1.5126 H   0  0  0  0  0  0  0  0  0  0  0  0
    5.8451   -2.1124    3.1456 H   0  0  0  0  0  0  0  0  0  0  0  0
    7.1690   -0.9332    2.7583 H   0  0  0  0  0  0  0  0  0  0  0  0
    5.5585    0.9208    2.5468 H   0  0  0  0  0  0  0  0  0  0  0  0
    3.2873    0.3495    3.5656 H   0  0  0  0  0  0  0  0  0  0  0  0
    3.7913    0.8434    1.0996 H   0  0  0  0  0  0  0  0  0  0  0  0
    3.7074   -0.9764    0.9998 H   0  0  0  0  0  0  0  0  0  0  0  0
    1.3374   -0.8698    2.0002 H   0  0  0  0  0  0  0  0  0  0  0  0
    1.8131   -0.9193   -0.5134 H   0  0  0  0  0  0  0  0  0  0  0  0
    1.8097    0.9217   -0.5134 H   0  0  0  0  0  0  0  0  0  0  0  0
   -9.2448   -0.2099   -6.3279 H   0  0  0  0  0  0  0  0  0  0  0  0
   -8.9258    0.6961   -4.7919 H   0  0  0  0  0  0  0  0  0  0  0  0
  -10.2619    1.2315   -5.8953 H   0  0  0  0  0  0  0  0  0  0  0  0
   -8.8738    1.0321   -8.5783 H   0  0  0  0  0  0  0  0  0  0  0  0
   -8.0163    2.6268   -8.5562 H   0  0  0  0  0  0  0  0  0  0  0  0
   -9.7375    2.5149   -7.9754 H   0  0  0  0  0  0  0  0  0  0  0  0
   -8.1525    2.6826   -6.0417 H   0  0  0  0  0  0  0  0  0  0  0  0
   -6.7313    0.4072   -4.7885 H   0  0  0  0  0  0  0  0  0  0  0  0
   -6.1420    2.1069   -5.1193 H   0  0  0  0  0  0  0  0  0  0  0  0
   -4.3680    1.1823   -6.6818 H   0  0  0  0  0  0  0  0  0  0  0  0
   -4.9515   -0.5164   -6.3341 H   0  0  0  0  0  0  0  0  0  0  0  0
   -2.2630    0.6697   -5.6893 H   0  0  0  0  0  0  0  0  0  0  0  0
   -2.8337   -1.0316   -5.3284 H   0  0  0  0  0  0  0  0  0  0  0  0
   -0.1075    0.0429   -4.6116 H   0  0  0  0  0  0  0  0  0  0  0  0
    1.1797    0.0143   -2.4968 H   0  0  0  0  0  0  0  0  0  0  0  0
   -3.8201    0.0447   -2.3975 H   0  0  0  0  0  0  0  0  0  0  0  0
   -2.5331    0.0206   -0.2430 H   0  0  0  0  0  0  0  0  0  0  0  0
  1  2  1  0  0  0  0
  2  3  1  0  0  0  0
  3  5  1  0  0  0  0
  3 35  1  1  0  0  0
  3  4  1  0  0  0  0
  5  6  1  0  0  0  0
  6  7  1  0  0  0  0
  6 32  1  0  0  0  0
  7  8  1  0  0  0  0
  8 26  1  0  0  0  0
  8 27  1  0  0  0  0
  8 25  1  0  0  0  0
  9  7  1  0  0  0  0
  9 30  1  0  0  0  0
  9 29  1  0  0  0  0
 10  1  1  0  0  0  0
 10 22  1  0  0  0  0
 11 10  2  0  0  0  0
 12 11  1  0  0  0  0
 12 13  2  0  0  0  0
 13 23  1  0  0  0  0
 14 13  1  0  0  0  0
 14 15  1  0  0  0  0
 16 15  1  0  0  0  0
 16 17  1  0  0  0  0
 17 46  1  0  0  0  0
 17 45  1  0  0  0  0
 18 17  1  0  0  0  0
 18 19  1  0  0  0  0
 19 44  1  0  0  0  0
 19 20  1  0  0  0  0
 20 39  1  0  0  0  0
 21 19  1  0  0  0  0
 21 43  1  0  0  0  0
 22 54  1  0  0  0  0
 23 22  2  0  0  0  0
 23 53  1  0  0  0  0
 24  4  1  0  0  0  0
 28  9  1  0  0  0  0
 31  7  1  0  0  0  0
 33  5  1  0  0  0  0
 34  5  1  0  0  0  0
 36  2  1  0  0  0  0
 37  2  1  0  0  0  0
 38 20  1  0  0  0  0
 40 20  1  0  0  0  0
 41 21  1  0  0  0  0
 42 21  1  0  0  0  0
 47 16  1  0  0  0  0
 48 16  1  0  0  0  0
 49 14  1  0  0  0  0
 50 14  1  0  0  0  0
 51 12  1  0  0  0  0
 52 11  1  0  0  0  0
M  END