17
  Mrv0541 03251413082D          

 12 11  0  0  0  0            999 V2000
    0.3316   -2.6664    0.0000 C   0  0  0  0  0  0  0  0  0  0  0  0
    1.0461   -2.2539    0.0000 C   0  0  0  0  0  0  0  0  0  0  0  0
    1.7605   -1.8414    0.0000 C   0  0  0  0  0  0  0  0  0  0  0  0
    2.4750   -1.4289    0.0000 C   0  0  0  0  0  0  0  0  0  0  0  0
    3.1895   -1.8414    0.0000 C   0  0  0  0  0  0  0  0  0  0  0  0
    3.9039   -1.4289    0.0000 C   0  0  0  0  0  0  0  0  0  0  0  0
    4.6184   -1.8414    0.0000 C   0  0  0  0  0  0  0  0  0  0  0  0
    5.3329   -1.4289    0.0000 C   0  0  0  0  0  0  0  0  0  0  0  0
    6.0474   -1.8414    0.0000 C   0  0  0  0  0  0  0  0  0  0  0  0
    0.3316   -3.4914    0.0000 O   0  0  0  0  0  0  0  0  0  0  0  0
   -0.3829   -2.2539    0.0000 O   0  0  0  0  0  0  0  0  0  0  0  0
   -1.0974   -2.6664    0.0000 C   0  0  0  0  0  0  0  0  0  0  0  0
  1  2  1  0  0  0  0
  2  3  3  0  0  0  0
  3  4  1  0  0  0  0
  4  5  1  0  0  0  0
  5  6  1  0  0  0  0
  6  7  1  0  0  0  0
  7  8  1  0  0  0  0
  8  9  1  0  0  0  0
 11  1  1  0  0  0  0
 10  1  2  0  0  0  0
 11 12  1  0  0  0  0
M  END