28
  Mrv0541 03251413082D          

 13 12  0  0  0  0            999 V2000
    4.3974    0.4125    0.0000 C   0  0  0  0  0  0  0  0  0  0  0  0
    3.6829   -0.0000    0.0000 O   0  0  0  0  0  0  0  0  0  0  0  0
    4.3974    1.2375    0.0000 O   0  0  0  0  0  0  0  0  0  0  0  0
    5.1118    0.0000    0.0000 C   0  0  0  0  0  0  0  0  0  0  0  0
    5.8263    0.4125    0.0000 C   0  0  0  0  0  0  0  0  0  0  0  0
    2.9684    0.4125    0.0000 C   0  0  0  0  0  0  0  0  0  0  0  0
    2.2539    0.0000    0.0000 C   0  0  0  0  0  0  0  0  0  0  0  0
    1.5395    0.4125    0.0000 C   0  0  0  0  0  0  0  0  0  0  0  0
    0.8250    0.0000    0.0000 C   0  0  0  0  0  0  0  0  0  0  0  0
    0.1105    0.4125    0.0000 C   0  0  0  0  0  0  0  0  0  0  0  0
   -0.6039    0.0000    0.0000 C   0  0  0  0  0  0  0  0  0  0  0  0
    2.2539   -0.8250    0.0000 C   0  0  0  0  0  0  0  0  0  0  0  0
    1.5395   -1.2375    0.0000 C   0  0  0  0  0  0  0  0  0  0  0  0
  1  2  1  0  0  0  0
  1  3  2  0  0  0  0
  1  4  1  0  0  0  0
  4  5  2  0  0  0  0
  6  7  1  0  0  0  0
  7  8  1  0  0  0  0
  8  9  1  0  0  0  0
  9 10  1  0  0  0  0
 10 11  1  0  0  0  0
 12 13  1  0  0  0  0
  7 12  1  0  0  0  0
  2  6  1  0  0  0  0
M  END