31
  Mrv0541 03251413082D          

 11 10  0  0  0  0            999 V2000
  -12.9348    3.3295    0.0000 C   0  0  0  0  0  0  0  0  0  0  0  0
  -12.2204    2.9170    0.0000 C   0  0  0  0  0  0  0  0  0  0  0  0
  -12.2204    2.0920    0.0000 C   0  0  0  0  0  0  0  0  0  0  0  0
  -11.5059    3.3295    0.0000 C   0  0  0  0  0  0  0  0  0  0  0  0
  -10.7914    2.9170    0.0000 C   0  0  0  0  0  0  0  0  0  0  0  0
  -10.0769    3.3295    0.0000 C   0  0  0  0  0  0  0  0  0  0  0  0
   -9.3625    2.9170    0.0000 C   0  0  0  0  0  0  0  0  0  0  0  0
   -9.3625    2.0920    0.0000 C   0  0  0  0  0  0  0  0  0  0  0  0
   -8.6480    3.3295    0.0000 C   0  0  0  0  0  0  0  0  0  0  0  0
   -7.9335    2.9170    0.0000 C   0  0  0  0  0  0  0  0  0  0  0  0
   -7.2191    2.5045    0.0000 N   0  0  0  0  0  0  0  0  0  0  0  0
  1  2  1  0  0  0  0
  2  3  1  0  0  0  0
  2  4  2  0  0  0  0
  4  5  1  0  0  0  0
  5  6  1  0  0  0  0
  6  7  1  0  0  0  0
  7  8  1  0  0  0  0
  7  9  2  0  0  0  0
  9 10  1  0  0  0  0
 10 11  3  0  0  0  0
M  END