33
  Mrv0541 03251413082D          

 12 11  0  0  0  0            999 V2000
    1.2375    0.7145    0.0000 C   0  0  0  0  0  0  0  0  0  0  0  0
    0.8250    0.0000    0.0000 C   0  0  0  0  0  0  0  0  0  0  0  0
    0.0000    0.0000    0.0000 C   0  0  0  0  0  0  0  0  0  0  0  0
   -0.4125   -0.7145    0.0000 C   0  0  0  0  0  0  0  0  0  0  0  0
   -1.2375   -0.7145    0.0000 C   0  0  0  0  0  0  0  0  0  0  0  0
   -1.6500   -1.4289    0.0000 C   0  0  0  0  0  0  0  0  0  0  0  0
   -2.0625   -2.1434    0.0000 C   0  0  0  0  0  0  0  0  0  0  0  0
   -2.8875   -2.1434    0.0000 C   0  0  0  0  0  0  0  0  0  0  0  0
    0.8250    1.4289    0.0000 O   0  0  0  0  0  0  0  0  0  0  0  0
    1.2375   -0.7145    0.0000 C   0  0  0  0  0  0  0  0  0  0  0  0
   -0.9355   -1.8414    0.0000 C   0  0  0  0  0  0  0  0  0  0  0  0
   -2.3645   -1.0164    0.0000 O   0  0  0  0  0  0  0  0  0  0  0  0
  1  2  1  0  0  0  0
  2  3  2  0  0  0  0
  3  4  1  0  0  0  0
  4  5  1  0  0  0  0
  5  6  1  0  0  0  0
  6  7  1  0  0  0  0
  7  8  2  0  0  0  0
  9  1  2  0  0  0  0
  2 10  1  0  0  0  0
  6 11  1  0  0  0  0
  6 12  1  0  0  0  0
M  END