
  Mrv171c004271813302D          

 53 57  0  0  0  0            999 V2000
    1.2830   -1.9476    0.0000 C   0  0  0  0  0  0  0  0  0  0  0  0
    0.5945   -1.4930    0.0000 C   0  0  1  0  0  0  0  0  0  0  0  0
   -0.1247   -1.9241    0.0000 C   0  0  0  0  0  0  0  0  0  0  0  0
   -0.6882   -1.3046    0.0000 C   0  0  0  0  0  0  0  0  0  0  0  0
   -0.5921   -0.4497    0.0000 C   0  0  1  0  0  0  0  0  0  0  0  0
   -1.4247   -0.2170    0.0000 C   0  0  2  0  0  0  0  0  0  0  0  0
   -1.4782   -1.0403    0.0000 C   0  0  0  0  0  0  0  0  0  0  0  0
   -2.2413   -0.3343    0.0000 Br  0  0  0  0  0  0  0  0  0  0  0  0
   -1.7132    0.5731    0.0000 C   0  0  1  0  0  0  0  0  0  0  0  0
   -2.4957    0.8345    0.0000 N   0  0  0  0  0  0  0  0  0  0  0  0
   -2.6605    1.6429    0.0000 C   0  0  0  0  0  0  0  0  0  0  0  0
   -3.4430    1.9044    0.0000 N   0  0  0  0  0  0  0  0  0  0  0  0
   -3.6078    2.7127    0.0000 C   0  0  0  0  0  0  0  0  0  0  0  0
   -2.9901    3.2596    0.0000 C   0  0  0  0  0  0  0  0  0  0  0  0
   -2.2076    2.9982    0.0000 C   0  0  0  0  0  0  0  0  0  0  0  0
   -2.0428    2.1898    0.0000 N   0  0  0  0  0  0  0  0  0  0  0  0
   -1.0081    1.0307    0.0000 O   0  0  0  0  0  0  0  0  0  0  0  0
   -0.1933    0.7601    0.0000 C   0  0  2  0  0  0  0  0  0  0  0  0
    0.7394    0.5394    0.0000 O   0  0  0  0  0  0  0  0  0  0  0  0
    1.5715    0.7523    0.0000 C   0  0  1  0  0  0  0  0  0  0  0  0
    2.2569    1.2114    0.0000 C   0  0  0  0  0  0  0  0  0  0  0  0
    2.0572    0.0545    0.0000 C   0  0  0  0  0  0  0  0  0  0  0  0
    1.5684   -0.6345    0.0000 C   0  0  0  0  0  0  0  0  0  0  0  0
    0.7110   -0.6457    0.0000 C   0  0  2  0  0  0  0  0  0  0  0  0
    0.1503    0.0497    0.0000 C   0  0  1  0  0  0  0  0  0  0  0  0
    0.3889    1.0006    0.0000 O   0  0  0  0  0  0  0  0  0  0  0  0
    1.1151    1.4609    0.0000 O   0  0  0  0  0  0  0  0  0  0  0  0
   -0.1042   -0.5185    0.0000 H   0  0  0  0  0  0  0  0  0  0  0  0
    0.8283   -2.6360    0.0000 H   0  0  0  0  0  0  0  0  0  0  0  0
    1.9714   -2.4022    0.0000 H   0  0  0  0  0  0  0  0  0  0  0  0
    1.7376   -1.2592    0.0000 H   0  0  0  0  0  0  0  0  0  0  0  0
    1.3460   -1.1526    0.0000 H   0  0  0  0  0  0  0  0  0  0  0  0
   -0.6226   -2.5820    0.0000 H   0  0  0  0  0  0  0  0  0  0  0  0
    0.1623   -2.6976    0.0000 H   0  0  0  0  0  0  0  0  0  0  0  0
   -1.1388   -1.9957    0.0000 H   0  0  0  0  0  0  0  0  0  0  0  0
    0.0967   -1.0505    0.0000 H   0  0  0  0  0  0  0  0  0  0  0  0
   -0.7234    0.3648    0.0000 H   0  0  0  0  0  0  0  0  0  0  0  0
   -2.1933   -0.6289    0.0000 H   0  0  0  0  0  0  0  0  0  0  0  0
   -2.1631   -1.5003    0.0000 H   0  0  0  0  0  0  0  0  0  0  0  0
   -1.3677   -1.8579    0.0000 H   0  0  0  0  0  0  0  0  0  0  0  0
   -1.8174    1.3915    0.0000 H   0  0  0  0  0  0  0  0  0  0  0  0
   -3.1134    0.2876    0.0000 H   0  0  0  0  0  0  0  0  0  0  0  0
   -4.3902    2.9742    0.0000 H   0  0  0  0  0  0  0  0  0  0  0  0
   -3.1549    4.0680    0.0000 H   0  0  0  0  0  0  0  0  0  0  0  0
   -1.5900    3.5451    0.0000 H   0  0  0  0  0  0  0  0  0  0  0  0
   -0.2226    1.5845    0.0000 H   0  0  0  0  0  0  0  0  0  0  0  0
    2.7160    0.5260    0.0000 H   0  0  0  0  0  0  0  0  0  0  0  0
    2.9423    1.6705    0.0000 H   0  0  0  0  0  0  0  0  0  0  0  0
    1.7978    1.8969    0.0000 H   0  0  0  0  0  0  0  0  0  0  0  0
    2.3162   -0.7288    0.0000 H   0  0  0  0  0  0  0  0  0  0  0  0
    2.8416   -0.2012    0.0000 H   0  0  0  0  0  0  0  0  0  0  0  0
    1.4724    0.1849    0.0000 H   0  0  0  0  0  0  0  0  0  0  0  0
    0.9485   -0.0901    0.0000 H   0  0  0  0  0  0  0  0  0  0  0  0
  2  1  1  1  0  0  0
  1 29  1  0  0  0  0
  1 30  1  0  0  0  0
  1 31  1  0  0  0  0
  2  3  1  0  0  0  0
 24  2  1  0  0  0  0
  2 32  1  6  0  0  0
  3  4  1  0  0  0  0
  3 33  1  0  0  0  0
  3 34  1  0  0  0  0
  5  4  1  0  0  0  0
  4 35  1  0  0  0  0
  4 36  1  0  0  0  0
  5  6  1  0  0  0  0
 25  5  1  0  0  0  0
  5 37  1  6  0  0  0
  6  7  1  1  0  0  0
  6  8  1  6  0  0  0
  6  9  1  0  0  0  0
  7 38  1  0  0  0  0
  7 39  1  0  0  0  0
  7 40  1  0  0  0  0
  9 10  1  1  0  0  0
  9 17  1  0  0  0  0
  9 41  1  6  0  0  0
 10 11  1  0  0  0  0
 10 42  1  0  0  0  0
 11 12  1  0  0  0  0
 11 16  2  0  0  0  0
 12 13  2  0  0  0  0
 13 14  1  0  0  0  0
 13 43  1  0  0  0  0
 14 15  2  0  0  0  0
 14 44  1  0  0  0  0
 15 16  1  0  0  0  0
 15 45  1  0  0  0  0
 18 17  1  0  0  0  0
 18 19  1  0  0  0  0
 25 18  1  0  0  0  0
 18 46  1  1  0  0  0
 20 19  1  0  0  0  0
 20 21  1  1  0  0  0
 20 22  1  0  0  0  0
 20 27  1  0  0  0  0
 21 47  1  0  0  0  0
 21 48  1  0  0  0  0
 21 49  1  0  0  0  0
 22 23  1  0  0  0  0
 22 50  1  0  0  0  0
 22 51  1  0  0  0  0
 24 23  1  0  0  0  0
 23 52  1  0  0  0  0
 23 53  1  0  0  0  0
 24 28  1  6  0  0  0
 25 24  1  0  0  0  0
 25 26  1  6  0  0  0
 26 27  1  0  0  0  0
M  END
