
  Mrv171c004271813302D          

 35 37  0  0  0  0            999 V2000
    0.8158   -1.3296    0.0000 C   0  0  0  0  0  0  0  0  0  0  0  0
    0.0754   -1.6934    0.0000 C   0  0  0  0  0  0  0  0  0  0  0  0
    0.0202   -2.5166    0.0000 O   0  0  0  0  0  0  0  0  0  0  0  0
   -0.6100   -1.2341    0.0000 O   0  0  0  0  0  0  0  0  0  0  0  0
   -0.5548   -0.4109    0.0000 C   0  0  2  0  0  0  0  0  0  0  0  0
   -1.3982   -0.1034    0.0000 O   0  0  0  0  0  0  0  0  0  0  0  0
   -1.6921    0.7007    0.0000 C   0  0  0  0  0  0  0  0  0  0  0  0
   -2.4368    0.3455    0.0000 C   0  0  0  0  0  0  0  0  0  0  0  0
   -2.1161    1.4084    0.0000 C   0  0  0  0  0  0  0  0  0  0  0  0
   -1.0001    1.2099    0.0000 O   0  0  0  0  0  0  0  0  0  0  0  0
   -0.4802    0.5513    0.0000 O   0  0  0  0  0  0  0  0  0  0  0  0
    0.1856   -0.0471    0.0000 C   0  0  1  0  0  0  0  0  0  0  0  0
    0.2407    0.7761    0.0000 C   0  0  0  0  0  0  0  0  0  0  0  0
    0.9811    1.1399    0.0000 C   0  0  0  0  0  0  0  0  0  0  0  0
    1.6665    0.6806    0.0000 C   0  0  0  0  0  0  0  0  0  0  0  0
    1.6113   -0.1426    0.0000 C   0  0  0  0  0  0  0  0  0  0  0  0
    0.8709   -0.5064    0.0000 C   0  0  1  0  0  0  0  0  0  0  0  0
    1.2221   -2.0476    0.0000 H   0  0  0  0  0  0  0  0  0  0  0  0
    1.6344   -1.4325    0.0000 H   0  0  0  0  0  0  0  0  0  0  0  0
    0.1305   -0.8703    0.0000 H   0  0  0  0  0  0  0  0  0  0  0  0
   -2.7919    1.0902    0.0000 H   0  0  0  0  0  0  0  0  0  0  0  0
   -3.1814   -0.0096    0.0000 H   0  0  0  0  0  0  0  0  0  0  0  0
   -2.0816   -0.3991    0.0000 H   0  0  0  0  0  0  0  0  0  0  0  0
   -1.2973    1.5089    0.0000 H   0  0  0  0  0  0  0  0  0  0  0  0
   -1.8759    2.1977    0.0000 H   0  0  0  0  0  0  0  0  0  0  0  0
   -2.7401    1.9481    0.0000 H   0  0  0  0  0  0  0  0  0  0  0  0
   -0.0649    1.5424    0.0000 H   0  0  0  0  0  0  0  0  0  0  0  0
    0.9260    0.3167    0.0000 H   0  0  0  0  0  0  0  0  0  0  0  0
    1.3998    1.8508    0.0000 H   0  0  0  0  0  0  0  0  0  0  0  0
    0.6610    1.9002    0.0000 H   0  0  0  0  0  0  0  0  0  0  0  0
    2.4914    0.6734    0.0000 H   0  0  0  0  0  0  0  0  0  0  0  0
    2.1648    1.3380    0.0000 H   0  0  0  0  0  0  0  0  0  0  0  0
    2.0176   -0.8606    0.0000 H   0  0  0  0  0  0  0  0  0  0  0  0
    2.4299   -0.2455    0.0000 H   0  0  0  0  0  0  0  0  0  0  0  0
    1.5562   -0.9657    0.0000 H   0  0  0  0  0  0  0  0  0  0  0  0
  1 18  1  0  0  0  0
  1 19  1  0  0  0  0
  1  2  1  0  0  0  0
 17  1  1  0  0  0  0
  2  3  2  0  0  0  0
  2  4  1  0  0  0  0
  5  4  1  0  0  0  0
  5  6  1  0  0  0  0
 12  5  1  0  0  0  0
  5 20  1  1  0  0  0
  6  7  1  0  0  0  0
  7  8  1  0  0  0  0
  7  9  1  0  0  0  0
  7 10  1  0  0  0  0
  8 21  1  0  0  0  0
  8 22  1  0  0  0  0
  8 23  1  0  0  0  0
  9 24  1  0  0  0  0
  9 25  1  0  0  0  0
  9 26  1  0  0  0  0
 10 11  1  0  0  0  0
 12 11  1  6  0  0  0
 12 13  1  0  0  0  0
 12 17  1  0  0  0  0
 13 14  1  0  0  0  0
 13 27  1  0  0  0  0
 13 28  1  0  0  0  0
 14 15  1  0  0  0  0
 14 29  1  0  0  0  0
 14 30  1  0  0  0  0
 15 16  1  0  0  0  0
 15 31  1  0  0  0  0
 15 32  1  0  0  0  0
 17 16  1  0  0  0  0
 16 33  1  0  0  0  0
 16 34  1  0  0  0  0
 17 35  1  6  0  0  0
M  END
