
  Mrv171c004271813302D          

 56 59  0  0  0  0            999 V2000
   -5.1269    0.0208    0.0000 C   0  0  0  0  0  0  0  0  0  0  0  0
   -4.5092    0.5677    0.0000 O   0  0  0  0  0  0  0  0  0  0  0  0
   -3.7268    0.3063    0.0000 C   0  0  0  0  0  0  0  0  0  0  0  0
   -3.5620   -0.5021    0.0000 O   0  0  0  0  0  0  0  0  0  0  0  0
   -3.1091    0.8532    0.0000 C   0  0  0  0  0  0  0  0  0  0  0  0
   -2.3266    0.5917    0.0000 C   0  0  0  0  0  0  0  0  0  0  0  0
   -1.7089    1.1386    0.0000 O   0  0  0  0  0  0  0  0  0  0  0  0
   -0.9265    0.8772    0.0000 C   0  0  1  0  0  0  0  0  0  0  0  0
   -0.2213    1.3348    0.0000 O   0  0  0  0  0  0  0  0  0  0  0  0
    0.5935    1.0642    0.0000 C   0  0  2  0  0  0  0  0  0  0  0  0
    1.5262    0.8435    0.0000 O   0  0  0  0  0  0  0  0  0  0  0  0
    2.3582    1.0564    0.0000 C   0  0  1  0  0  0  0  0  0  0  0  0
    3.0437    1.5155    0.0000 C   0  0  0  0  0  0  0  0  0  0  0  0
    2.8440    0.3586    0.0000 C   0  0  0  0  0  0  0  0  0  0  0  0
    2.3552   -0.3304    0.0000 C   0  0  0  0  0  0  0  0  0  0  0  0
    1.4977   -0.3416    0.0000 C   0  0  1  0  0  0  0  0  0  0  0  0
    1.3813   -1.1889    0.0000 C   0  0  1  0  0  0  0  0  0  0  0  0
    2.0697   -1.6435    0.0000 C   0  0  0  0  0  0  0  0  0  0  0  0
    0.6621   -1.6201    0.0000 C   0  0  0  0  0  0  0  0  0  0  0  0
    0.0986   -1.0005    0.0000 C   0  0  0  0  0  0  0  0  0  0  0  0
    0.1947   -0.1456    0.0000 C   0  0  1  0  0  0  0  0  0  0  0  0
   -0.6379    0.0870    0.0000 C   0  0  1  0  0  0  0  0  0  0  0  0
   -1.1982   -0.5185    0.0000 C   0  0  0  0  0  0  0  0  0  0  0  0
    0.9370    0.3538    0.0000 C   0  0  1  0  0  0  0  0  0  0  0  0
    1.1756    1.3047    0.0000 O   0  0  0  0  0  0  0  0  0  0  0  0
    1.9018    1.7650    0.0000 O   0  0  0  0  0  0  0  0  0  0  0  0
    1.8488    0.4050    0.0000 H   0  0  0  0  0  0  0  0  0  0  0  0
   -0.4132   -0.7068    0.0000 H   0  0  0  0  0  0  0  0  0  0  0  0
   -5.6738    0.6385    0.0000 H   0  0  0  0  0  0  0  0  0  0  0  0
   -5.7446   -0.5261    0.0000 H   0  0  0  0  0  0  0  0  0  0  0  0
   -4.5800   -0.5968    0.0000 H   0  0  0  0  0  0  0  0  0  0  0  0
   -2.8936    1.6495    0.0000 H   0  0  0  0  0  0  0  0  0  0  0  0
   -3.6192    1.5016    0.0000 H   0  0  0  0  0  0  0  0  0  0  0  0
   -2.5421   -0.2046    0.0000 H   0  0  0  0  0  0  0  0  0  0  0  0
   -1.8165   -0.0567    0.0000 H   0  0  0  0  0  0  0  0  0  0  0  0
   -1.5017    0.2858    0.0000 H   0  0  0  0  0  0  0  0  0  0  0  0
    0.5642    1.8886    0.0000 H   0  0  0  0  0  0  0  0  0  0  0  0
    3.5028    0.8301    0.0000 H   0  0  0  0  0  0  0  0  0  0  0  0
    3.7291    1.9746    0.0000 H   0  0  0  0  0  0  0  0  0  0  0  0
    2.5845    2.2010    0.0000 H   0  0  0  0  0  0  0  0  0  0  0  0
    3.1029   -0.4247    0.0000 H   0  0  0  0  0  0  0  0  0  0  0  0
    3.6283    0.1029    0.0000 H   0  0  0  0  0  0  0  0  0  0  0  0
    1.9192   -1.0308    0.0000 H   0  0  0  0  0  0  0  0  0  0  0  0
    2.7098   -1.0753    0.0000 H   0  0  0  0  0  0  0  0  0  0  0  0
    0.6929   -0.7342    0.0000 H   0  0  0  0  0  0  0  0  0  0  0  0
    1.3576   -2.0600    0.0000 H   0  0  0  0  0  0  0  0  0  0  0  0
    2.1284   -2.4664    0.0000 H   0  0  0  0  0  0  0  0  0  0  0  0
    2.8338   -1.9547    0.0000 H   0  0  0  0  0  0  0  0  0  0  0  0
   -0.0645   -2.0109    0.0000 H   0  0  0  0  0  0  0  0  0  0  0  0
    0.4030   -2.4033    0.0000 H   0  0  0  0  0  0  0  0  0  0  0  0
   -0.7194   -0.8932    0.0000 H   0  0  0  0  0  0  0  0  0  0  0  0
   -0.5014   -1.5669    0.0000 H   0  0  0  0  0  0  0  0  0  0  0  0
    0.0634    0.6688    0.0000 H   0  0  0  0  0  0  0  0  0  0  0  0
   -2.0153   -0.6322    0.0000 H   0  0  0  0  0  0  0  0  0  0  0  0
   -1.6993   -1.1739    0.0000 H   0  0  0  0  0  0  0  0  0  0  0  0
   -1.0937   -1.3369    0.0000 H   0  0  0  0  0  0  0  0  0  0  0  0
  1  2  1  0  0  0  0
  1 29  1  0  0  0  0
  1 30  1  0  0  0  0
  1 31  1  0  0  0  0
  2  3  1  0  0  0  0
  3  4  2  0  0  0  0
  3  5  1  0  0  0  0
  5  6  1  0  0  0  0
  5 32  1  0  0  0  0
  5 33  1  0  0  0  0
  6  7  1  0  0  0  0
  6 34  1  0  0  0  0
  6 35  1  0  0  0  0
  8  7  1  1  0  0  0
  8  9  1  0  0  0  0
 22  8  1  0  0  0  0
  8 36  1  6  0  0  0
 10  9  1  0  0  0  0
 10 11  1  0  0  0  0
 24 10  1  0  0  0  0
 10 37  1  1  0  0  0
 12 11  1  0  0  0  0
 12 13  1  1  0  0  0
 12 14  1  0  0  0  0
 12 26  1  0  0  0  0
 13 38  1  0  0  0  0
 13 39  1  0  0  0  0
 13 40  1  0  0  0  0
 14 15  1  0  0  0  0
 14 41  1  0  0  0  0
 14 42  1  0  0  0  0
 16 15  1  0  0  0  0
 15 43  1  0  0  0  0
 15 44  1  0  0  0  0
 16 27  1  6  0  0  0
 16 17  1  0  0  0  0
 24 16  1  0  0  0  0
 17 18  1  0  0  0  0
 17 19  1  1  0  0  0
 17 45  1  6  0  0  0
 18 46  1  0  0  0  0
 18 47  1  0  0  0  0
 18 48  1  0  0  0  0
 19 20  1  0  0  0  0
 19 49  1  0  0  0  0
 19 50  1  0  0  0  0
 21 20  1  0  0  0  0
 20 51  1  0  0  0  0
 20 52  1  0  0  0  0
 21 22  1  0  0  0  0
 24 21  1  0  0  0  0
 21 53  1  6  0  0  0
 22 28  1  6  0  0  0
 22 23  1  1  0  0  0
 23 54  1  0  0  0  0
 23 55  1  0  0  0  0
 23 56  1  0  0  0  0
 24 25  1  6  0  0  0
 25 26  1  0  0  0  0
M  END
