
  Mrv171c004271813302D          

 59 62  0  0  0  0            999 V2000
   -5.4464    1.3303    0.0000 C   0  0  0  0  0  0  0  0  0  0  0  0
   -4.7320    0.9178    0.0000 O   0  0  0  0  0  0  0  0  0  0  0  0
   -4.0175    1.3303    0.0000 C   0  0  0  0  0  0  0  0  0  0  0  0
   -4.0175    2.1553    0.0000 O   0  0  0  0  0  0  0  0  0  0  0  0
   -3.3030    0.9178    0.0000 C   0  0  0  0  0  0  0  0  0  0  0  0
   -2.5885    1.3303    0.0000 C   0  0  0  0  0  0  0  0  0  0  0  0
   -1.8741    0.9178    0.0000 C   0  0  0  0  0  0  0  0  0  0  0  0
   -1.1596    1.3303    0.0000 O   0  0  0  0  0  0  0  0  0  0  0  0
   -0.4451    0.9178    0.0000 C   0  0  1  0  0  0  0  0  0  0  0  0
    0.3372    1.2254    0.0000 O   0  0  0  0  0  0  0  0  0  0  0  0
    1.0816    0.7974    0.0000 C   0  0  2  0  0  0  0  0  0  0  0  0
    1.9513    0.3949    0.0000 O   0  0  0  0  0  0  0  0  0  0  0  0
    2.8091    0.4373    0.0000 C   0  0  1  0  0  0  0  0  0  0  0  0
    3.5725    0.7502    0.0000 C   0  0  0  0  0  0  0  0  0  0  0  0
    3.1457   -0.3434    0.0000 C   0  0  0  0  0  0  0  0  0  0  0  0
    2.5291   -0.9209    0.0000 C   0  0  0  0  0  0  0  0  0  0  0  0
    1.6867   -0.7606    0.0000 C   0  0  1  0  0  0  0  0  0  0  0  0
    1.4034   -1.5676    0.0000 C   0  0  1  0  0  0  0  0  0  0  0  0
    1.9871   -2.1506    0.0000 C   0  0  0  0  0  0  0  0  0  0  0  0
    0.6126   -1.8464    0.0000 C   0  0  0  0  0  0  0  0  0  0  0  0
    0.1842   -1.1268    0.0000 C   0  0  0  0  0  0  0  0  0  0  0  0
    0.4491   -0.3083    0.0000 C   0  0  1  0  0  0  0  0  0  0  0  0
   -0.3202    0.0860    0.0000 C   0  0  1  0  0  0  0  0  0  0  0  0
   -0.9902   -0.3955    0.0000 C   0  0  0  0  0  0  0  0  0  0  0  0
    1.2763    0.0328    0.0000 C   0  0  1  0  0  0  0  0  0  0  0  0
    1.7000    0.9168    0.0000 O   0  0  0  0  0  0  0  0  0  0  0  0
    2.5035    1.2228    0.0000 O   0  0  0  0  0  0  0  0  0  0  0  0
    2.1799   -0.0992    0.0000 H   0  0  0  0  0  0  0  0  0  0  0  0
   -0.2586   -0.7367    0.0000 H   0  0  0  0  0  0  0  0  0  0  0  0
   -5.0339    2.0448    0.0000 H   0  0  0  0  0  0  0  0  0  0  0  0
   -6.1609    1.7428    0.0000 H   0  0  0  0  0  0  0  0  0  0  0  0
   -5.8589    0.6158    0.0000 H   0  0  0  0  0  0  0  0  0  0  0  0
   -3.6733    0.1806    0.0000 H   0  0  0  0  0  0  0  0  0  0  0  0
   -2.9328    0.1806    0.0000 H   0  0  0  0  0  0  0  0  0  0  0  0
   -2.2183    2.0676    0.0000 H   0  0  0  0  0  0  0  0  0  0  0  0
   -2.9588    2.0676    0.0000 H   0  0  0  0  0  0  0  0  0  0  0  0
   -2.2443    0.1806    0.0000 H   0  0  0  0  0  0  0  0  0  0  0  0
   -1.5038    0.1806    0.0000 H   0  0  0  0  0  0  0  0  0  0  0  0
   -1.1269    0.4533    0.0000 H   0  0  0  0  0  0  0  0  0  0  0  0
    1.2175    1.6111    0.0000 H   0  0  0  0  0  0  0  0  0  0  0  0
    3.8854   -0.0131    0.0000 H   0  0  0  0  0  0  0  0  0  0  0  0
    4.3358    1.0632    0.0000 H   0  0  0  0  0  0  0  0  0  0  0  0
    3.2596    1.5136    0.0000 H   0  0  0  0  0  0  0  0  0  0  0  0
    3.2430   -1.1627    0.0000 H   0  0  0  0  0  0  0  0  0  0  0  0
    3.8632   -0.7507    0.0000 H   0  0  0  0  0  0  0  0  0  0  0  0
    1.9621   -1.5202    0.0000 H   0  0  0  0  0  0  0  0  0  0  0  0
    2.7278   -1.7217    0.0000 H   0  0  0  0  0  0  0  0  0  0  0  0
    0.8197   -0.9846    0.0000 H   0  0  0  0  0  0  0  0  0  0  0  0
    1.2061   -2.4164    0.0000 H   0  0  0  0  0  0  0  0  0  0  0  0
    1.8803   -2.9686    0.0000 H   0  0  0  0  0  0  0  0  0  0  0  0
    2.6736   -2.6081    0.0000 H   0  0  0  0  0  0  0  0  0  0  0  0
   -0.1774   -2.0842    0.0000 H   0  0  0  0  0  0  0  0  0  0  0  0
    0.2023   -2.5621    0.0000 H   0  0  0  0  0  0  0  0  0  0  0  0
   -0.5959   -0.8582    0.0000 H   0  0  0  0  0  0  0  0  0  0  0  0
   -0.5168   -1.5619    0.0000 H   0  0  0  0  0  0  0  0  0  0  0  0
    0.4831    0.5160    0.0000 H   0  0  0  0  0  0  0  0  0  0  0  0
   -1.8136   -0.3437    0.0000 H   0  0  0  0  0  0  0  0  0  0  0  0
   -1.6121   -0.9375    0.0000 H   0  0  0  0  0  0  0  0  0  0  0  0
   -1.0513   -1.2182    0.0000 H   0  0  0  0  0  0  0  0  0  0  0  0
  1  2  1  0  0  0  0
  1 30  1  0  0  0  0
  1 31  1  0  0  0  0
  1 32  1  0  0  0  0
  2  3  1  0  0  0  0
  3  4  2  0  0  0  0
  3  5  1  0  0  0  0
  5  6  1  0  0  0  0
  5 33  1  0  0  0  0
  5 34  1  0  0  0  0
  6  7  1  0  0  0  0
  6 35  1  0  0  0  0
  6 36  1  0  0  0  0
  7  8  1  0  0  0  0
  7 37  1  0  0  0  0
  7 38  1  0  0  0  0
  9  8  1  1  0  0  0
  9 10  1  0  0  0  0
 23  9  1  0  0  0  0
  9 39  1  6  0  0  0
 11 10  1  0  0  0  0
 11 12  1  0  0  0  0
 25 11  1  0  0  0  0
 11 40  1  1  0  0  0
 13 12  1  0  0  0  0
 13 14  1  1  0  0  0
 13 15  1  0  0  0  0
 13 27  1  0  0  0  0
 14 41  1  0  0  0  0
 14 42  1  0  0  0  0
 14 43  1  0  0  0  0
 15 16  1  0  0  0  0
 15 44  1  0  0  0  0
 15 45  1  0  0  0  0
 17 16  1  0  0  0  0
 16 46  1  0  0  0  0
 16 47  1  0  0  0  0
 17 28  1  6  0  0  0
 17 18  1  0  0  0  0
 25 17  1  0  0  0  0
 18 19  1  0  0  0  0
 18 20  1  1  0  0  0
 18 48  1  6  0  0  0
 19 49  1  0  0  0  0
 19 50  1  0  0  0  0
 19 51  1  0  0  0  0
 20 21  1  0  0  0  0
 20 52  1  0  0  0  0
 20 53  1  0  0  0  0
 22 21  1  0  0  0  0
 21 54  1  0  0  0  0
 21 55  1  0  0  0  0
 22 23  1  0  0  0  0
 25 22  1  0  0  0  0
 22 56  1  6  0  0  0
 23 29  1  6  0  0  0
 23 24  1  1  0  0  0
 24 57  1  0  0  0  0
 24 58  1  0  0  0  0
 24 59  1  0  0  0  0
 25 26  1  6  0  0  0
 26 27  1  0  0  0  0
M  END
