
  Mrv171c004271813302D          

 53 56  0  0  0  0            999 V2000
   -3.4227    0.9238    0.0000 C   0  0  0  0  0  0  0  0  0  0  0  0
   -2.6402    0.6624    0.0000 C   0  0  0  0  0  0  0  0  0  0  0  0
   -2.0225    1.2093    0.0000 O   0  0  0  0  0  0  0  0  0  0  0  0
   -1.2401    0.9478    0.0000 C   0  0  1  0  0  0  0  0  0  0  0  0
   -0.5349    1.4054    0.0000 O   0  0  0  0  0  0  0  0  0  0  0  0
    0.2799    1.1348    0.0000 C   0  0  2  0  0  0  0  0  0  0  0  0
    1.2126    0.9141    0.0000 O   0  0  0  0  0  0  0  0  0  0  0  0
    2.0446    1.1271    0.0000 C   0  0  1  0  0  0  0  0  0  0  0  0
    2.7300    1.5862    0.0000 C   0  0  0  0  0  0  0  0  0  0  0  0
    2.5304    0.4293    0.0000 C   0  0  0  0  0  0  0  0  0  0  0  0
    2.0416   -0.2597    0.0000 C   0  0  0  0  0  0  0  0  0  0  0  0
    1.1841   -0.2709    0.0000 C   0  0  1  0  0  0  0  0  0  0  0  0
    1.0677   -1.1182    0.0000 C   0  0  1  0  0  0  0  0  0  0  0  0
    1.7561   -1.5729    0.0000 C   0  0  0  0  0  0  0  0  0  0  0  0
    0.3485   -1.5494    0.0000 C   0  0  0  0  0  0  0  0  0  0  0  0
   -0.2150   -0.9299    0.0000 C   0  0  0  0  0  0  0  0  0  0  0  0
   -0.1189   -0.0750    0.0000 C   0  0  1  0  0  0  0  0  0  0  0  0
   -0.9515    0.1577    0.0000 C   0  0  1  0  0  0  0  0  0  0  0  0
   -1.5118   -0.4479    0.0000 C   0  0  0  0  0  0  0  0  0  0  0  0
   -1.2675   -1.2359    0.0000 C   0  0  0  0  0  0  0  0  0  0  0  0
    0.6234    0.4245    0.0000 C   0  0  1  0  0  0  0  0  0  0  0  0
    0.8620    1.3753    0.0000 O   0  0  0  0  0  0  0  0  0  0  0  0
    1.5882    1.8357    0.0000 O   0  0  0  0  0  0  0  0  0  0  0  0
    1.5352    0.4756    0.0000 H   0  0  0  0  0  0  0  0  0  0  0  0
   -0.7268   -0.6361    0.0000 H   0  0  0  0  0  0  0  0  0  0  0  0
   -3.1612    1.7063    0.0000 H   0  0  0  0  0  0  0  0  0  0  0  0
   -4.2052    1.1853    0.0000 H   0  0  0  0  0  0  0  0  0  0  0  0
   -3.6842    0.1414    0.0000 H   0  0  0  0  0  0  0  0  0  0  0  0
   -2.8557   -0.1340    0.0000 H   0  0  0  0  0  0  0  0  0  0  0  0
   -2.1302    0.0139    0.0000 H   0  0  0  0  0  0  0  0  0  0  0  0
   -1.8153    0.3564    0.0000 H   0  0  0  0  0  0  0  0  0  0  0  0
    0.2506    1.9593    0.0000 H   0  0  0  0  0  0  0  0  0  0  0  0
    3.1892    0.9007    0.0000 H   0  0  0  0  0  0  0  0  0  0  0  0
    3.4155    2.0453    0.0000 H   0  0  0  0  0  0  0  0  0  0  0  0
    2.2709    2.2716    0.0000 H   0  0  0  0  0  0  0  0  0  0  0  0
    2.7893   -0.3540    0.0000 H   0  0  0  0  0  0  0  0  0  0  0  0
    3.3147    0.1735    0.0000 H   0  0  0  0  0  0  0  0  0  0  0  0
    1.6056   -0.9602    0.0000 H   0  0  0  0  0  0  0  0  0  0  0  0
    2.3962   -1.0046    0.0000 H   0  0  0  0  0  0  0  0  0  0  0  0
    0.3793   -0.6636    0.0000 H   0  0  0  0  0  0  0  0  0  0  0  0
    1.0439   -1.9893    0.0000 H   0  0  0  0  0  0  0  0  0  0  0  0
    1.8148   -2.3958    0.0000 H   0  0  0  0  0  0  0  0  0  0  0  0
    2.5202   -1.8841    0.0000 H   0  0  0  0  0  0  0  0  0  0  0  0
   -0.3781   -1.9402    0.0000 H   0  0  0  0  0  0  0  0  0  0  0  0
    0.0894   -2.3327    0.0000 H   0  0  0  0  0  0  0  0  0  0  0  0
   -1.0330   -0.8226    0.0000 H   0  0  0  0  0  0  0  0  0  0  0  0
   -0.8150   -1.4962    0.0000 H   0  0  0  0  0  0  0  0  0  0  0  0
   -0.2502    0.7395    0.0000 H   0  0  0  0  0  0  0  0  0  0  0  0
   -2.3210   -0.6087    0.0000 H   0  0  0  0  0  0  0  0  0  0  0  0
   -1.9339   -1.1568    0.0000 H   0  0  0  0  0  0  0  0  0  0  0  0
   -1.9637   -1.6785    0.0000 H   0  0  0  0  0  0  0  0  0  0  0  0
   -1.5271   -2.0190    0.0000 H   0  0  0  0  0  0  0  0  0  0  0  0
   -0.9735   -2.0067    0.0000 H   0  0  0  0  0  0  0  0  0  0  0  0
  1  2  1  0  0  0  0
  1 26  1  0  0  0  0
  1 27  1  0  0  0  0
  1 28  1  0  0  0  0
  2  3  1  0  0  0  0
  2 29  1  0  0  0  0
  2 30  1  0  0  0  0
  4  3  1  1  0  0  0
  4  5  1  0  0  0  0
 18  4  1  0  0  0  0
  4 31  1  6  0  0  0
  6  5  1  0  0  0  0
  6  7  1  0  0  0  0
 21  6  1  0  0  0  0
  6 32  1  1  0  0  0
  8  7  1  0  0  0  0
  8  9  1  1  0  0  0
  8 10  1  0  0  0  0
  8 23  1  0  0  0  0
  9 33  1  0  0  0  0
  9 34  1  0  0  0  0
  9 35  1  0  0  0  0
 10 11  1  0  0  0  0
 10 36  1  0  0  0  0
 10 37  1  0  0  0  0
 12 11  1  0  0  0  0
 11 38  1  0  0  0  0
 11 39  1  0  0  0  0
 12 24  1  6  0  0  0
 12 13  1  0  0  0  0
 21 12  1  0  0  0  0
 13 14  1  0  0  0  0
 13 15  1  1  0  0  0
 13 40  1  6  0  0  0
 14 41  1  0  0  0  0
 14 42  1  0  0  0  0
 14 43  1  0  0  0  0
 15 16  1  0  0  0  0
 15 44  1  0  0  0  0
 15 45  1  0  0  0  0
 17 16  1  0  0  0  0
 16 46  1  0  0  0  0
 16 47  1  0  0  0  0
 17 18  1  0  0  0  0
 21 17  1  0  0  0  0
 17 48  1  6  0  0  0
 18 25  1  6  0  0  0
 18 19  1  1  0  0  0
 19 20  1  0  0  0  0
 19 49  1  0  0  0  0
 19 50  1  0  0  0  0
 20 51  1  0  0  0  0
 20 52  1  0  0  0  0
 20 53  1  0  0  0  0
 21 22  1  6  0  0  0
 22 23  1  0  0  0  0
M  END
