
  Mrv171c004271813302D          

 47 50  0  0  0  0            999 V2000
   -2.0829   -2.4202    0.0000 C   0  0  0  0  0  0  0  0  0  0  0  0
   -2.3272   -1.6322    0.0000 C   0  0  0  0  0  0  0  0  0  0  0  0
   -1.7670   -1.0267    0.0000 N   0  0  0  0  0  0  0  0  0  0  0  0
   -2.0112   -0.2387    0.0000 N   0  0  0  0  0  0  0  0  0  0  0  0
   -1.4510    0.3669    0.0000 C   0  0  1  0  0  0  0  0  0  0  0  0
   -1.7395    1.1570    0.0000 C   0  0  0  0  0  0  0  0  0  0  0  0
   -2.5220    1.4185    0.0000 O   0  0  0  0  0  0  0  0  0  0  0  0
   -1.0344    1.6146    0.0000 O   0  0  0  0  0  0  0  0  0  0  0  0
   -0.2195    1.3440    0.0000 C   0  0  2  0  0  0  0  0  0  0  0  0
    0.7131    1.1233    0.0000 O   0  0  0  0  0  0  0  0  0  0  0  0
    1.5452    1.3363    0.0000 C   0  0  1  0  0  0  0  0  0  0  0  0
    2.2306    1.7954    0.0000 C   0  0  0  0  0  0  0  0  0  0  0  0
    2.0309    0.6385    0.0000 C   0  0  0  0  0  0  0  0  0  0  0  0
    1.5421   -0.0505    0.0000 C   0  0  0  0  0  0  0  0  0  0  0  0
    0.6847   -0.0617    0.0000 C   0  0  1  0  0  0  0  0  0  0  0  0
    0.5682   -0.9090    0.0000 C   0  0  1  0  0  0  0  0  0  0  0  0
    1.2567   -1.3636    0.0000 C   0  0  0  0  0  0  0  0  0  0  0  0
   -0.1510   -1.3402    0.0000 C   0  0  0  0  0  0  0  0  0  0  0  0
   -0.7145   -0.7207    0.0000 C   0  0  0  0  0  0  0  0  0  0  0  0
   -0.6183    0.1342    0.0000 C   0  0  2  0  0  0  0  0  0  0  0  0
    0.1240    0.6337    0.0000 C   0  0  1  0  0  0  0  0  0  0  0  0
    0.3626    1.5845    0.0000 O   0  0  0  0  0  0  0  0  0  0  0  0
    1.0888    2.0449    0.0000 O   0  0  0  0  0  0  0  0  0  0  0  0
   -1.2263   -0.4269    0.0000 H   0  0  0  0  0  0  0  0  0  0  0  0
    1.0358    0.6848    0.0000 H   0  0  0  0  0  0  0  0  0  0  0  0
   -2.8709   -2.6645    0.0000 H   0  0  0  0  0  0  0  0  0  0  0  0
   -1.8386   -3.2082    0.0000 H   0  0  0  0  0  0  0  0  0  0  0  0
   -1.2949   -2.1759    0.0000 H   0  0  0  0  0  0  0  0  0  0  0  0
   -2.9644   -1.1081    0.0000 H   0  0  0  0  0  0  0  0  0  0  0  0
   -3.1281   -1.8303    0.0000 H   0  0  0  0  0  0  0  0  0  0  0  0
   -0.2489    2.1685    0.0000 H   0  0  0  0  0  0  0  0  0  0  0  0
    2.6897    1.1099    0.0000 H   0  0  0  0  0  0  0  0  0  0  0  0
    2.9161    2.2545    0.0000 H   0  0  0  0  0  0  0  0  0  0  0  0
    1.7715    2.4808    0.0000 H   0  0  0  0  0  0  0  0  0  0  0  0
    2.2899   -0.1448    0.0000 H   0  0  0  0  0  0  0  0  0  0  0  0
    2.8153    0.3827    0.0000 H   0  0  0  0  0  0  0  0  0  0  0  0
    1.1062   -0.7510    0.0000 H   0  0  0  0  0  0  0  0  0  0  0  0
    1.8968   -0.7954    0.0000 H   0  0  0  0  0  0  0  0  0  0  0  0
   -0.1202   -0.4544    0.0000 H   0  0  0  0  0  0  0  0  0  0  0  0
    0.5445   -1.7801    0.0000 H   0  0  0  0  0  0  0  0  0  0  0  0
    1.3153   -2.1866    0.0000 H   0  0  0  0  0  0  0  0  0  0  0  0
    2.0207   -1.6749    0.0000 H   0  0  0  0  0  0  0  0  0  0  0  0
   -0.8775   -1.7310    0.0000 H   0  0  0  0  0  0  0  0  0  0  0  0
   -0.4100   -2.1235    0.0000 H   0  0  0  0  0  0  0  0  0  0  0  0
   -1.4670   -1.0588    0.0000 H   0  0  0  0  0  0  0  0  0  0  0  0
   -0.8826   -1.5284    0.0000 H   0  0  0  0  0  0  0  0  0  0  0  0
   -0.7497    0.9487    0.0000 H   0  0  0  0  0  0  0  0  0  0  0  0
  1  2  1  0  0  0  0
  1 26  1  0  0  0  0
  1 27  1  0  0  0  0
  1 28  1  0  0  0  0
  2  3  1  0  0  0  0
  2 29  1  0  0  0  0
  2 30  1  0  0  0  0
  3  4  2  0  0  0  0
  5  4  1  1  0  0  0
  5 24  1  6  0  0  0
  5  6  1  0  0  0  0
 20  5  1  0  0  0  0
  6  7  2  0  0  0  0
  6  8  1  0  0  0  0
  9  8  1  0  0  0  0
  9 10  1  0  0  0  0
 21  9  1  0  0  0  0
  9 31  1  1  0  0  0
 11 10  1  0  0  0  0
 11 12  1  1  0  0  0
 11 13  1  0  0  0  0
 11 23  1  0  0  0  0
 12 32  1  0  0  0  0
 12 33  1  0  0  0  0
 12 34  1  0  0  0  0
 13 14  1  0  0  0  0
 13 35  1  0  0  0  0
 13 36  1  0  0  0  0
 15 14  1  0  0  0  0
 14 37  1  0  0  0  0
 14 38  1  0  0  0  0
 15 25  1  6  0  0  0
 15 16  1  0  0  0  0
 21 15  1  0  0  0  0
 16 17  1  0  0  0  0
 16 18  1  1  0  0  0
 16 39  1  6  0  0  0
 17 40  1  0  0  0  0
 17 41  1  0  0  0  0
 17 42  1  0  0  0  0
 18 19  1  0  0  0  0
 18 43  1  0  0  0  0
 18 44  1  0  0  0  0
 20 19  1  0  0  0  0
 19 45  1  0  0  0  0
 19 46  1  0  0  0  0
 21 20  1  0  0  0  0
 20 47  1  6  0  0  0
 21 22  1  6  0  0  0
 22 23  1  0  0  0  0
M  END
