
  Mrv171c004271813302D          

 48 51  0  0  0  0            999 V2000
   -1.6247   -0.8139    0.0000 C   0  0  0  0  0  0  0  0  0  0  0  0
   -1.8690   -0.0259    0.0000 C   0  0  0  0  0  0  0  0  0  0  0  0
   -2.6736    0.1566    0.0000 C   0  0  0  0  0  0  0  0  0  0  0  0
   -1.3088    0.5797    0.0000 C   0  0  1  0  0  0  0  0  0  0  0  0
   -1.5973    1.3698    0.0000 C   0  0  0  0  0  0  0  0  0  0  0  0
   -2.3798    1.6313    0.0000 O   0  0  0  0  0  0  0  0  0  0  0  0
   -0.8922    1.8275    0.0000 O   0  0  0  0  0  0  0  0  0  0  0  0
   -0.0773    1.5568    0.0000 C   0  0  2  0  0  0  0  0  0  0  0  0
    0.8553    1.3361    0.0000 O   0  0  0  0  0  0  0  0  0  0  0  0
    1.6874    1.5491    0.0000 C   0  0  1  0  0  0  0  0  0  0  0  0
    2.3728    2.0082    0.0000 C   0  0  0  0  0  0  0  0  0  0  0  0
    2.1731    0.8513    0.0000 C   0  0  0  0  0  0  0  0  0  0  0  0
    1.6843    0.1623    0.0000 C   0  0  0  0  0  0  0  0  0  0  0  0
    0.8269    0.1511    0.0000 C   0  0  1  0  0  0  0  0  0  0  0  0
    0.7105   -0.6962    0.0000 C   0  0  1  0  0  0  0  0  0  0  0  0
    1.3989   -1.1508    0.0000 C   0  0  0  0  0  0  0  0  0  0  0  0
   -0.0087   -1.1274    0.0000 C   0  0  0  0  0  0  0  0  0  0  0  0
   -0.5723   -0.5079    0.0000 C   0  0  0  0  0  0  0  0  0  0  0  0
   -0.4761    0.3470    0.0000 C   0  0  2  0  0  0  0  0  0  0  0  0
    0.2662    0.8465    0.0000 C   0  0  1  0  0  0  0  0  0  0  0  0
    0.5048    1.7973    0.0000 O   0  0  0  0  0  0  0  0  0  0  0  0
    1.2310    2.2577    0.0000 O   0  0  0  0  0  0  0  0  0  0  0  0
   -1.0840   -0.2141    0.0000 H   0  0  0  0  0  0  0  0  0  0  0  0
    1.1780    0.8976    0.0000 H   0  0  0  0  0  0  0  0  0  0  0  0
   -2.4127   -1.0582    0.0000 H   0  0  0  0  0  0  0  0  0  0  0  0
   -1.3804   -1.6019    0.0000 H   0  0  0  0  0  0  0  0  0  0  0  0
   -0.8367   -0.5696    0.0000 H   0  0  0  0  0  0  0  0  0  0  0  0
   -2.4293   -0.6314    0.0000 H   0  0  0  0  0  0  0  0  0  0  0  0
   -2.2892    0.8865    0.0000 H   0  0  0  0  0  0  0  0  0  0  0  0
   -3.2792    0.7169    0.0000 H   0  0  0  0  0  0  0  0  0  0  0  0
   -3.3715   -0.2833    0.0000 H   0  0  0  0  0  0  0  0  0  0  0  0
   -0.1067    2.3813    0.0000 H   0  0  0  0  0  0  0  0  0  0  0  0
    2.8319    1.3227    0.0000 H   0  0  0  0  0  0  0  0  0  0  0  0
    3.0583    2.4673    0.0000 H   0  0  0  0  0  0  0  0  0  0  0  0
    1.9137    2.6936    0.0000 H   0  0  0  0  0  0  0  0  0  0  0  0
    2.4321    0.0680    0.0000 H   0  0  0  0  0  0  0  0  0  0  0  0
    2.9575    0.5956    0.0000 H   0  0  0  0  0  0  0  0  0  0  0  0
    1.2484   -0.5382    0.0000 H   0  0  0  0  0  0  0  0  0  0  0  0
    2.0390   -0.5826    0.0000 H   0  0  0  0  0  0  0  0  0  0  0  0
    0.0220   -0.2416    0.0000 H   0  0  0  0  0  0  0  0  0  0  0  0
    0.6867   -1.5673    0.0000 H   0  0  0  0  0  0  0  0  0  0  0  0
    1.4576   -1.9737    0.0000 H   0  0  0  0  0  0  0  0  0  0  0  0
    2.1629   -1.4621    0.0000 H   0  0  0  0  0  0  0  0  0  0  0  0
   -0.7353   -1.5182    0.0000 H   0  0  0  0  0  0  0  0  0  0  0  0
   -0.2678   -1.9106    0.0000 H   0  0  0  0  0  0  0  0  0  0  0  0
   -1.0705   -1.1654    0.0000 H   0  0  0  0  0  0  0  0  0  0  0  0
   -0.5353   -1.3320    0.0000 H   0  0  0  0  0  0  0  0  0  0  0  0
   -0.6075    1.1615    0.0000 H   0  0  0  0  0  0  0  0  0  0  0  0
  1  2  1  0  0  0  0
  1 25  1  0  0  0  0
  1 26  1  0  0  0  0
  1 27  1  0  0  0  0
  2  3  1  0  0  0  0
  4  2  1  1  0  0  0
  2 28  1  0  0  0  0
  3 29  1  0  0  0  0
  3 30  1  0  0  0  0
  3 31  1  0  0  0  0
  4 23  1  6  0  0  0
  4  5  1  0  0  0  0
 19  4  1  0  0  0  0
  5  6  2  0  0  0  0
  5  7  1  0  0  0  0
  8  7  1  0  0  0  0
  8  9  1  0  0  0  0
 20  8  1  0  0  0  0
  8 32  1  1  0  0  0
 10  9  1  0  0  0  0
 10 11  1  1  0  0  0
 10 12  1  0  0  0  0
 10 22  1  0  0  0  0
 11 33  1  0  0  0  0
 11 34  1  0  0  0  0
 11 35  1  0  0  0  0
 12 13  1  0  0  0  0
 12 36  1  0  0  0  0
 12 37  1  0  0  0  0
 14 13  1  0  0  0  0
 13 38  1  0  0  0  0
 13 39  1  0  0  0  0
 14 24  1  6  0  0  0
 14 15  1  0  0  0  0
 20 14  1  0  0  0  0
 15 16  1  0  0  0  0
 15 17  1  1  0  0  0
 15 40  1  6  0  0  0
 16 41  1  0  0  0  0
 16 42  1  0  0  0  0
 16 43  1  0  0  0  0
 17 18  1  0  0  0  0
 17 44  1  0  0  0  0
 17 45  1  0  0  0  0
 19 18  1  0  0  0  0
 18 46  1  0  0  0  0
 18 47  1  0  0  0  0
 20 19  1  0  0  0  0
 19 48  1  6  0  0  0
 20 21  1  6  0  0  0
 21 22  1  0  0  0  0
M  END
