
  Mrv171c004271813302D          

 41 44  0  0  0  0            999 V2000
    1.3178   -1.2267    0.0000 C   0  0  0  0  0  0  0  0  0  0  0  0
    0.5846   -0.8486    0.0000 C   0  0  1  0  0  0  0  0  0  0  0  0
   -0.1148   -1.2635    0.0000 C   0  0  0  0  0  0  0  0  0  0  0  0
   -0.8546   -0.8940    0.0000 C   0  0  0  0  0  0  0  0  0  0  0  0
   -0.9000   -0.0628    0.0000 C   0  0  1  0  0  0  0  0  0  0  0  0
   -1.7070    0.1278    0.0000 C   0  0  1  0  0  0  0  0  0  0  0  0
   -2.2747   -0.4708    0.0000 C   0  0  0  0  0  0  0  0  0  0  0  0
   -1.9391    0.9204    0.0000 C   0  0  0  0  0  0  0  0  0  0  0  0
   -2.7449    1.0974    0.0000 O   0  0  0  0  0  0  0  0  0  0  0  0
   -1.4014    1.5366    0.0000 O   0  0  0  0  0  0  0  0  0  0  0  0
   -0.6045    1.3304    0.0000 C   0  0  2  0  0  0  0  0  0  0  0  0
   -0.0176    1.9811    0.0000 O   0  0  0  0  0  0  0  0  0  0  0  0
    0.7340    1.5845    0.0000 C   0  0  1  0  0  0  0  0  0  0  0  0
    1.1724    2.2834    0.0000 C   0  0  0  0  0  0  0  0  0  0  0  0
    1.4227    1.0770    0.0000 C   0  0  0  0  0  0  0  0  0  0  0  0
    1.3466    0.2376    0.0000 C   0  0  0  0  0  0  0  0  0  0  0  0
    0.5161   -0.0259    0.0000 C   0  0  2  0  0  0  0  0  0  0  0  0
   -0.2461    0.4886    0.0000 C   0  0  1  0  0  0  0  0  0  0  0  0
    0.2514    0.9791    0.0000 O   0  0  0  0  0  0  0  0  0  0  0  0
   -1.4712   -0.6627    0.0000 H   0  0  0  0  0  0  0  0  0  0  0  0
   -0.1957   -0.4430    0.0000 H   0  0  0  0  0  0  0  0  0  0  0  0
    0.9397   -1.9599    0.0000 H   0  0  0  0  0  0  0  0  0  0  0  0
    2.0511   -1.6048    0.0000 H   0  0  0  0  0  0  0  0  0  0  0  0
    1.6959   -0.4934    0.0000 H   0  0  0  0  0  0  0  0  0  0  0  0
    1.2706   -0.3903    0.0000 H   0  0  0  0  0  0  0  0  0  0  0  0
   -0.4541   -2.0155    0.0000 H   0  0  0  0  0  0  0  0  0  0  0  0
    0.2780   -1.9890    0.0000 H   0  0  0  0  0  0  0  0  0  0  0  0
   -1.6741   -0.9888    0.0000 H   0  0  0  0  0  0  0  0  0  0  0  0
   -1.2671   -1.6085    0.0000 H   0  0  0  0  0  0  0  0  0  0  0  0
   -1.0915    0.7396    0.0000 H   0  0  0  0  0  0  0  0  0  0  0  0
   -2.6194    0.2788    0.0000 H   0  0  0  0  0  0  0  0  0  0  0  0
   -3.0987   -0.5121    0.0000 H   0  0  0  0  0  0  0  0  0  0  0  0
   -2.5427   -1.2510    0.0000 H   0  0  0  0  0  0  0  0  0  0  0  0
   -0.8419    2.1205    0.0000 H   0  0  0  0  0  0  0  0  0  0  0  0
    1.8712    1.8450    0.0000 H   0  0  0  0  0  0  0  0  0  0  0  0
    1.6108    2.9823    0.0000 H   0  0  0  0  0  0  0  0  0  0  0  0
    0.4735    2.7218    0.0000 H   0  0  0  0  0  0  0  0  0  0  0  0
    2.2085    0.8257    0.0000 H   0  0  0  0  0  0  0  0  0  0  0  0
    0.6703    0.7386    0.0000 H   0  0  0  0  0  0  0  0  0  0  0  0
    2.1446    0.0283    0.0000 H   0  0  0  0  0  0  0  0  0  0  0  0
    2.0219    0.7115    0.0000 H   0  0  0  0  0  0  0  0  0  0  0  0
  2  1  1  0  0  0  0
  1 22  1  0  0  0  0
  1 23  1  0  0  0  0
  1 24  1  0  0  0  0
  2  3  1  0  0  0  0
 17  2  1  0  0  0  0
  2 25  1  6  0  0  0
  3  4  1  0  0  0  0
  3 26  1  0  0  0  0
  3 27  1  0  0  0  0
  5  4  1  0  0  0  0
  4 28  1  0  0  0  0
  4 29  1  0  0  0  0
  5  6  1  0  0  0  0
 18  5  1  0  0  0  0
  5 30  1  6  0  0  0
  6 20  1  6  0  0  0
  6  7  1  0  0  0  0
  6  8  1  0  0  0  0
  7 31  1  0  0  0  0
  7 32  1  0  0  0  0
  7 33  1  0  0  0  0
  8  9  2  0  0  0  0
  8 10  1  0  0  0  0
 11 10  1  0  0  0  0
 11 12  1  0  0  0  0
 18 11  1  0  0  0  0
 11 34  1  1  0  0  0
 13 12  1  0  0  0  0
 13 14  1  6  0  0  0
 13 15  1  0  0  0  0
 13 19  1  0  0  0  0
 14 35  1  0  0  0  0
 14 36  1  0  0  0  0
 14 37  1  0  0  0  0
 15 16  1  0  0  0  0
 15 38  1  0  0  0  0
 15 39  1  0  0  0  0
 17 16  1  0  0  0  0
 16 40  1  0  0  0  0
 16 41  1  0  0  0  0
 17 21  1  6  0  0  0
 18 17  1  0  0  0  0
 18 19  1  6  0  0  0
M  END
