
  Mrv171c004271813302D          

 44 47  0  0  0  0            999 V2000
    1.1274   -1.4483    0.0000 C   0  0  0  0  0  0  0  0  0  0  0  0
    0.4389   -0.9937    0.0000 C   0  0  1  0  0  0  0  0  0  0  0  0
   -0.2803   -1.4248    0.0000 C   0  0  0  0  0  0  0  0  0  0  0  0
   -0.8438   -0.8053    0.0000 C   0  0  0  0  0  0  0  0  0  0  0  0
   -0.7477    0.0496    0.0000 C   0  0  1  0  0  0  0  0  0  0  0  0
   -1.5803    0.2822    0.0000 C   0  0  1  0  0  0  0  0  0  0  0  0
   -2.1406   -0.3233    0.0000 C   0  0  0  0  0  0  0  0  0  0  0  0
   -1.8688    1.0724    0.0000 C   0  0  1  0  0  0  0  0  0  0  0  0
   -2.6513    1.3338    0.0000 O   0  0  0  0  0  0  0  0  0  0  0  0
   -1.1637    1.5300    0.0000 O   0  0  0  0  0  0  0  0  0  0  0  0
   -0.3489    1.2594    0.0000 C   0  0  2  0  0  0  0  0  0  0  0  0
    0.5838    1.0387    0.0000 O   0  0  0  0  0  0  0  0  0  0  0  0
    1.4159    1.2516    0.0000 C   0  0  1  0  0  0  0  0  0  0  0  0
    2.1013    1.7107    0.0000 C   0  0  0  0  0  0  0  0  0  0  0  0
    1.9016    0.5538    0.0000 C   0  0  0  0  0  0  0  0  0  0  0  0
    1.4128   -0.1352    0.0000 C   0  0  0  0  0  0  0  0  0  0  0  0
    0.5554   -0.1464    0.0000 C   0  0  2  0  0  0  0  0  0  0  0  0
   -0.0053    0.5490    0.0000 C   0  0  1  0  0  0  0  0  0  0  0  0
    0.2333    1.4999    0.0000 O   0  0  0  0  0  0  0  0  0  0  0  0
    0.9595    1.9602    0.0000 O   0  0  0  0  0  0  0  0  0  0  0  0
   -1.3556   -0.5116    0.0000 H   0  0  0  0  0  0  0  0  0  0  0  0
   -0.2395   -0.3672    0.0000 H   0  0  0  0  0  0  0  0  0  0  0  0
    0.6727   -2.1367    0.0000 H   0  0  0  0  0  0  0  0  0  0  0  0
    1.8158   -1.9029    0.0000 H   0  0  0  0  0  0  0  0  0  0  0  0
    1.5820   -0.7599    0.0000 H   0  0  0  0  0  0  0  0  0  0  0  0
    1.1904   -0.6533    0.0000 H   0  0  0  0  0  0  0  0  0  0  0  0
   -0.7782   -2.0827    0.0000 H   0  0  0  0  0  0  0  0  0  0  0  0
    0.0067   -2.1983    0.0000 H   0  0  0  0  0  0  0  0  0  0  0  0
   -1.6618   -0.6980    0.0000 H   0  0  0  0  0  0  0  0  0  0  0  0
   -1.4437   -1.3716    0.0000 H   0  0  0  0  0  0  0  0  0  0  0  0
   -0.8790    0.8641    0.0000 H   0  0  0  0  0  0  0  0  0  0  0  0
   -2.5010    0.4188    0.0000 H   0  0  0  0  0  0  0  0  0  0  0  0
   -2.9629   -0.3893    0.0000 H   0  0  0  0  0  0  0  0  0  0  0  0
   -2.3780   -1.1134    0.0000 H   0  0  0  0  0  0  0  0  0  0  0  0
   -1.9730    1.8908    0.0000 H   0  0  0  0  0  0  0  0  0  0  0  0
   -3.4233    1.6247    0.0000 H   0  0  0  0  0  0  0  0  0  0  0  0
   -0.3782    2.0838    0.0000 H   0  0  0  0  0  0  0  0  0  0  0  0
    2.5604    1.0253    0.0000 H   0  0  0  0  0  0  0  0  0  0  0  0
    2.7867    2.1698    0.0000 H   0  0  0  0  0  0  0  0  0  0  0  0
    1.6422    2.3962    0.0000 H   0  0  0  0  0  0  0  0  0  0  0  0
    2.1606   -0.2295    0.0000 H   0  0  0  0  0  0  0  0  0  0  0  0
    2.6860    0.2981    0.0000 H   0  0  0  0  0  0  0  0  0  0  0  0
    1.3168    0.6842    0.0000 H   0  0  0  0  0  0  0  0  0  0  0  0
    0.7929    0.4092    0.0000 H   0  0  0  0  0  0  0  0  0  0  0  0
  2  1  1  1  0  0  0
  1 23  1  0  0  0  0
  1 24  1  0  0  0  0
  1 25  1  0  0  0  0
  2  3  1  0  0  0  0
 17  2  1  0  0  0  0
  2 26  1  6  0  0  0
  3  4  1  0  0  0  0
  3 27  1  0  0  0  0
  3 28  1  0  0  0  0
  5  4  1  0  0  0  0
  4 29  1  0  0  0  0
  4 30  1  0  0  0  0
  5  6  1  0  0  0  0
 18  5  1  0  0  0  0
  5 31  1  6  0  0  0
  6 21  1  6  0  0  0
  6  7  1  1  0  0  0
  6  8  1  0  0  0  0
  7 32  1  0  0  0  0
  7 33  1  0  0  0  0
  7 34  1  0  0  0  0
  8  9  1  1  0  0  0
  8 10  1  0  0  0  0
  8 35  1  6  0  0  0
  9 36  1  0  0  0  0
 11 10  1  0  0  0  0
 11 12  1  0  0  0  0
 18 11  1  0  0  0  0
 11 37  1  1  0  0  0
 13 12  1  0  0  0  0
 13 14  1  1  0  0  0
 13 15  1  0  0  0  0
 13 20  1  0  0  0  0
 14 38  1  0  0  0  0
 14 39  1  0  0  0  0
 14 40  1  0  0  0  0
 15 16  1  0  0  0  0
 15 41  1  0  0  0  0
 15 42  1  0  0  0  0
 17 16  1  0  0  0  0
 16 43  1  0  0  0  0
 16 44  1  0  0  0  0
 17 22  1  6  0  0  0
 18 17  1  0  0  0  0
 18 19  1  6  0  0  0
 19 20  1  0  0  0  0
M  END
