
  Mrv171c004271813302D          

 39 42  0  0  0  0            999 V2000
    0.7246   -1.3357    0.0000 C   0  0  0  0  0  0  0  0  0  0  0  0
    0.0362   -0.8811    0.0000 C   0  0  1  0  0  0  0  0  0  0  0  0
   -0.6830   -1.3123    0.0000 C   0  0  0  0  0  0  0  0  0  0  0  0
   -1.2465   -0.6928    0.0000 C   0  0  0  0  0  0  0  0  0  0  0  0
   -1.1504    0.1621    0.0000 C   0  0  1  0  0  0  0  0  0  0  0  0
   -1.9830    0.3948    0.0000 C   0  0  0  0  0  0  0  0  0  0  0  0
   -2.2715    1.1849    0.0000 C   0  0  0  0  0  0  0  0  0  0  0  0
   -3.0540    1.4464    0.0000 O   0  0  0  0  0  0  0  0  0  0  0  0
   -1.5664    1.6426    0.0000 O   0  0  0  0  0  0  0  0  0  0  0  0
   -0.7516    1.3719    0.0000 C   0  0  2  0  0  0  0  0  0  0  0  0
    0.1811    1.1512    0.0000 O   0  0  0  0  0  0  0  0  0  0  0  0
    1.0131    1.3642    0.0000 C   0  0  1  0  0  0  0  0  0  0  0  0
    1.6986    1.8233    0.0000 C   0  0  0  0  0  0  0  0  0  0  0  0
    1.4989    0.6664    0.0000 C   0  0  0  0  0  0  0  0  0  0  0  0
    1.0101   -0.0226    0.0000 C   0  0  0  0  0  0  0  0  0  0  0  0
    0.1526   -0.0338    0.0000 C   0  0  2  0  0  0  0  0  0  0  0  0
   -0.4080    0.6616    0.0000 C   0  0  1  0  0  0  0  0  0  0  0  0
   -0.1694    1.6124    0.0000 O   0  0  0  0  0  0  0  0  0  0  0  0
    0.5567    2.0728    0.0000 O   0  0  0  0  0  0  0  0  0  0  0  0
   -0.6423   -0.2547    0.0000 H   0  0  0  0  0  0  0  0  0  0  0  0
    0.2700   -2.0242    0.0000 H   0  0  0  0  0  0  0  0  0  0  0  0
    1.4131   -1.7904    0.0000 H   0  0  0  0  0  0  0  0  0  0  0  0
    1.1793   -0.6473    0.0000 H   0  0  0  0  0  0  0  0  0  0  0  0
    0.7877   -0.5407    0.0000 H   0  0  0  0  0  0  0  0  0  0  0  0
   -1.1809   -1.9701    0.0000 H   0  0  0  0  0  0  0  0  0  0  0  0
   -0.3960   -2.0858    0.0000 H   0  0  0  0  0  0  0  0  0  0  0  0
   -2.0645   -0.5854    0.0000 H   0  0  0  0  0  0  0  0  0  0  0  0
   -1.8464   -1.2591    0.0000 H   0  0  0  0  0  0  0  0  0  0  0  0
   -1.2817    0.9766    0.0000 H   0  0  0  0  0  0  0  0  0  0  0  0
   -2.7522    0.0966    0.0000 H   0  0  0  0  0  0  0  0  0  0  0  0
   -2.2206   -0.3952    0.0000 H   0  0  0  0  0  0  0  0  0  0  0  0
   -0.7809    2.1964    0.0000 H   0  0  0  0  0  0  0  0  0  0  0  0
    2.1577    1.1378    0.0000 H   0  0  0  0  0  0  0  0  0  0  0  0
    2.3840    2.2824    0.0000 H   0  0  0  0  0  0  0  0  0  0  0  0
    1.2395    2.5087    0.0000 H   0  0  0  0  0  0  0  0  0  0  0  0
    1.7579   -0.1169    0.0000 H   0  0  0  0  0  0  0  0  0  0  0  0
    2.2833    0.4107    0.0000 H   0  0  0  0  0  0  0  0  0  0  0  0
    0.9141    0.7968    0.0000 H   0  0  0  0  0  0  0  0  0  0  0  0
    0.3902    0.5217    0.0000 H   0  0  0  0  0  0  0  0  0  0  0  0
  2  1  1  1  0  0  0
  1 21  1  0  0  0  0
  1 22  1  0  0  0  0
  1 23  1  0  0  0  0
  2  3  1  0  0  0  0
 16  2  1  0  0  0  0
  2 24  1  6  0  0  0
  3  4  1  0  0  0  0
  3 25  1  0  0  0  0
  3 26  1  0  0  0  0
  5  4  1  0  0  0  0
  4 27  1  0  0  0  0
  4 28  1  0  0  0  0
  5  6  1  0  0  0  0
 17  5  1  0  0  0  0
  5 29  1  6  0  0  0
  6  7  1  0  0  0  0
  6 30  1  0  0  0  0
  6 31  1  0  0  0  0
  7  8  2  0  0  0  0
  7  9  1  0  0  0  0
 10  9  1  0  0  0  0
 10 11  1  0  0  0  0
 17 10  1  0  0  0  0
 10 32  1  1  0  0  0
 12 11  1  0  0  0  0
 12 13  1  1  0  0  0
 12 14  1  0  0  0  0
 12 19  1  0  0  0  0
 13 33  1  0  0  0  0
 13 34  1  0  0  0  0
 13 35  1  0  0  0  0
 14 15  1  0  0  0  0
 14 36  1  0  0  0  0
 14 37  1  0  0  0  0
 16 15  1  0  0  0  0
 15 38  1  0  0  0  0
 15 39  1  0  0  0  0
 16 20  1  6  0  0  0
 17 16  1  0  0  0  0
 17 18  1  6  0  0  0
 18 19  1  0  0  0  0
M  END
