
  Mrv171c004271813302D          

 51 54  0  0  0  0            999 V2000
   -3.5099   -0.5691    0.0000 C   0  0  0  0  0  0  0  0  0  0  0  0
   -2.7098   -0.7703    0.0000 C   0  0  0  0  0  0  0  0  0  0  0  0
   -2.1355   -0.1780    0.0000 C   0  0  0  0  0  0  0  0  0  0  0  0
   -1.3355   -0.3792    0.0000 C   0  0  0  0  0  0  0  0  0  0  0  0
   -0.7612    0.2131    0.0000 C   0  0  1  0  0  0  0  0  0  0  0  0
   -0.9935    1.0270    0.0000 C   0  0  0  0  0  0  0  0  0  0  0  0
   -0.4123    1.6324    0.0000 O   0  0  0  0  0  0  0  0  0  0  0  0
    0.3653    1.3895    0.0000 C   0  0  2  0  0  0  0  0  0  0  0  0
    0.9191    2.0506    0.0000 O   0  0  0  0  0  0  0  0  0  0  0  0
    1.6771    1.6547    0.0000 C   0  0  1  0  0  0  0  0  0  0  0  0
    2.0925    2.3675    0.0000 C   0  0  0  0  0  0  0  0  0  0  0  0
    2.4019    1.1860    0.0000 C   0  0  0  0  0  0  0  0  0  0  0  0
    2.3111    0.3427    0.0000 C   0  0  0  0  0  0  0  0  0  0  0  0
    1.4981    0.0589    0.0000 C   0  0  1  0  0  0  0  0  0  0  0  0
    1.5830   -0.7622    0.0000 C   0  0  1  0  0  0  0  0  0  0  0  0
    2.3289   -1.1148    0.0000 C   0  0  0  0  0  0  0  0  0  0  0  0
    0.8875   -1.2226    0.0000 C   0  0  0  0  0  0  0  0  0  0  0  0
    0.1393   -0.8479    0.0000 C   0  0  0  0  0  0  0  0  0  0  0  0
    0.0755    0.0020    0.0000 C   0  0  2  0  0  0  0  0  0  0  0  0
    0.7233    0.5463    0.0000 C   0  0  1  0  0  0  0  0  0  0  0  0
    1.2169    1.0218    0.0000 O   0  0  0  0  0  0  0  0  0  0  0  0
   -0.5357   -0.5805    0.0000 H   0  0  0  0  0  0  0  0  0  0  0  0
    0.7974   -0.3767    0.0000 H   0  0  0  0  0  0  0  0  0  0  0  0
   -3.3087    0.2310    0.0000 H   0  0  0  0  0  0  0  0  0  0  0  0
   -4.3100   -0.3680    0.0000 H   0  0  0  0  0  0  0  0  0  0  0  0
   -3.7111   -1.3692    0.0000 H   0  0  0  0  0  0  0  0  0  0  0  0
   -2.8641   -1.5808    0.0000 H   0  0  0  0  0  0  0  0  0  0  0  0
   -2.1519   -1.3781    0.0000 H   0  0  0  0  0  0  0  0  0  0  0  0
   -1.9812    0.6324    0.0000 H   0  0  0  0  0  0  0  0  0  0  0  0
   -2.6935    0.4297    0.0000 H   0  0  0  0  0  0  0  0  0  0  0  0
   -1.4898   -1.1896    0.0000 H   0  0  0  0  0  0  0  0  0  0  0  0
   -0.7775   -0.9869    0.0000 H   0  0  0  0  0  0  0  0  0  0  0  0
   -1.6200    1.5637    0.0000 H   0  0  0  0  0  0  0  0  0  0  0  0
   -1.7984    0.8457    0.0000 H   0  0  0  0  0  0  0  0  0  0  0  0
   -0.1886    0.7781    0.0000 H   0  0  0  0  0  0  0  0  0  0  0  0
    2.8053    1.9521    0.0000 H   0  0  0  0  0  0  0  0  0  0  0  0
    2.5079    3.0803    0.0000 H   0  0  0  0  0  0  0  0  0  0  0  0
    1.3797    2.7829    0.0000 H   0  0  0  0  0  0  0  0  0  0  0  0
    3.1910    0.9454    0.0000 H   0  0  0  0  0  0  0  0  0  0  0  0
    1.6571    0.8310    0.0000 H   0  0  0  0  0  0  0  0  0  0  0  0
    2.6516   -0.4088    0.0000 H   0  0  0  0  0  0  0  0  0  0  0  0
    3.1202    0.1814    0.0000 H   0  0  0  0  0  0  0  0  0  0  0  0
    2.2563   -0.2855    0.0000 H   0  0  0  0  0  0  0  0  0  0  0  0
    1.7195   -1.6709    0.0000 H   0  0  0  0  0  0  0  0  0  0  0  0
    2.6120   -1.8897    0.0000 H   0  0  0  0  0  0  0  0  0  0  0  0
    3.1532   -1.1472    0.0000 H   0  0  0  0  0  0  0  0  0  0  0  0
    0.1942   -1.6698    0.0000 H   0  0  0  0  0  0  0  0  0  0  0  0
    0.9199   -2.0469    0.0000 H   0  0  0  0  0  0  0  0  0  0  0  0
   -0.3774   -1.4911    0.0000 H   0  0  0  0  0  0  0  0  0  0  0  0
   -0.3496   -0.1834    0.0000 H   0  0  0  0  0  0  0  0  0  0  0  0
    0.2972    0.7967    0.0000 H   0  0  0  0  0  0  0  0  0  0  0  0
  1  2  1  0  0  0  0
  1 24  1  0  0  0  0
  1 25  1  0  0  0  0
  1 26  1  0  0  0  0
  2  3  1  0  0  0  0
  2 27  1  0  0  0  0
  2 28  1  0  0  0  0
  3  4  1  0  0  0  0
  3 29  1  0  0  0  0
  3 30  1  0  0  0  0
  5  4  1  0  0  0  0
  4 31  1  0  0  0  0
  4 32  1  0  0  0  0
  5 22  1  6  0  0  0
  5  6  1  0  0  0  0
 19  5  1  0  0  0  0
  6  7  1  0  0  0  0
  6 33  1  0  0  0  0
  6 34  1  0  0  0  0
  8  7  1  0  0  0  0
  8  9  1  0  0  0  0
 20  8  1  0  0  0  0
  8 35  1  1  0  0  0
 10  9  1  0  0  0  0
 10 11  1  6  0  0  0
 10 12  1  0  0  0  0
 10 21  1  0  0  0  0
 11 36  1  0  0  0  0
 11 37  1  0  0  0  0
 11 38  1  0  0  0  0
 12 13  1  0  0  0  0
 12 39  1  0  0  0  0
 12 40  1  0  0  0  0
 14 13  1  0  0  0  0
 13 41  1  0  0  0  0
 13 42  1  0  0  0  0
 14 23  1  6  0  0  0
 14 15  1  0  0  0  0
 20 14  1  0  0  0  0
 15 16  1  0  0  0  0
 15 17  1  0  0  0  0
 15 43  1  6  0  0  0
 16 44  1  0  0  0  0
 16 45  1  0  0  0  0
 16 46  1  0  0  0  0
 17 18  1  0  0  0  0
 17 47  1  0  0  0  0
 17 48  1  0  0  0  0
 19 18  1  0  0  0  0
 18 49  1  0  0  0  0
 18 50  1  0  0  0  0
 20 19  1  0  0  0  0
 19 51  1  6  0  0  0
 20 21  1  6  0  0  0
M  END
