
  Mrv171c004271813302D          

 47 50  0  0  0  0            999 V2000
   -3.1094   -1.0529    0.0000 C   0  0  0  0  0  0  0  0  0  0  0  0
   -2.5351   -0.4606    0.0000 C   0  0  0  0  0  0  0  0  0  0  0  0
   -1.7350   -0.6618    0.0000 C   0  0  0  0  0  0  0  0  0  0  0  0
   -1.1607   -0.0695    0.0000 C   0  0  1  0  0  0  0  0  0  0  0  0
   -1.3931    0.7444    0.0000 C   0  0  0  0  0  0  0  0  0  0  0  0
   -2.1938    0.9432    0.0000 O   0  0  0  0  0  0  0  0  0  0  0  0
   -0.8118    1.3498    0.0000 O   0  0  0  0  0  0  0  0  0  0  0  0
   -0.0342    1.1069    0.0000 C   0  0  2  0  0  0  0  0  0  0  0  0
    0.5195    1.7680    0.0000 O   0  0  0  0  0  0  0  0  0  0  0  0
    1.2775    1.3721    0.0000 C   0  0  1  0  0  0  0  0  0  0  0  0
    1.6929    2.0849    0.0000 C   0  0  0  0  0  0  0  0  0  0  0  0
    2.0023    0.9034    0.0000 C   0  0  0  0  0  0  0  0  0  0  0  0
    1.9116    0.0601    0.0000 C   0  0  0  0  0  0  0  0  0  0  0  0
    1.0985   -0.2237    0.0000 C   0  0  1  0  0  0  0  0  0  0  0  0
    1.1834   -1.0448    0.0000 C   0  0  1  0  0  0  0  0  0  0  0  0
    1.9293   -1.3974    0.0000 C   0  0  0  0  0  0  0  0  0  0  0  0
    0.4880   -1.5052    0.0000 C   0  0  0  0  0  0  0  0  0  0  0  0
   -0.2602   -1.1305    0.0000 C   0  0  0  0  0  0  0  0  0  0  0  0
   -0.3241   -0.2806    0.0000 C   0  0  2  0  0  0  0  0  0  0  0  0
    0.3237    0.2637    0.0000 C   0  0  1  0  0  0  0  0  0  0  0  0
    0.8173    0.7392    0.0000 O   0  0  0  0  0  0  0  0  0  0  0  0
   -0.9352   -0.8630    0.0000 H   0  0  0  0  0  0  0  0  0  0  0  0
    0.3979   -0.6592    0.0000 H   0  0  0  0  0  0  0  0  0  0  0  0
   -3.7017   -0.4786    0.0000 H   0  0  0  0  0  0  0  0  0  0  0  0
   -3.6836   -1.6452    0.0000 H   0  0  0  0  0  0  0  0  0  0  0  0
   -2.5171   -1.6272    0.0000 H   0  0  0  0  0  0  0  0  0  0  0  0
   -2.3808    0.3498    0.0000 H   0  0  0  0  0  0  0  0  0  0  0  0
   -3.0930    0.1472    0.0000 H   0  0  0  0  0  0  0  0  0  0  0  0
   -1.8893   -1.4722    0.0000 H   0  0  0  0  0  0  0  0  0  0  0  0
   -1.1771   -1.2695    0.0000 H   0  0  0  0  0  0  0  0  0  0  0  0
   -0.5881    0.4955    0.0000 H   0  0  0  0  0  0  0  0  0  0  0  0
    2.4057    1.6695    0.0000 H   0  0  0  0  0  0  0  0  0  0  0  0
    2.1083    2.7977    0.0000 H   0  0  0  0  0  0  0  0  0  0  0  0
    0.9801    2.5003    0.0000 H   0  0  0  0  0  0  0  0  0  0  0  0
    2.7914    0.6628    0.0000 H   0  0  0  0  0  0  0  0  0  0  0  0
    1.2576    0.5484    0.0000 H   0  0  0  0  0  0  0  0  0  0  0  0
    2.2520   -0.6914    0.0000 H   0  0  0  0  0  0  0  0  0  0  0  0
    2.7207   -0.1012    0.0000 H   0  0  0  0  0  0  0  0  0  0  0  0
    1.8567   -0.5681    0.0000 H   0  0  0  0  0  0  0  0  0  0  0  0
    1.3199   -1.9535    0.0000 H   0  0  0  0  0  0  0  0  0  0  0  0
    2.2124   -2.1723    0.0000 H   0  0  0  0  0  0  0  0  0  0  0  0
    2.7537   -1.4297    0.0000 H   0  0  0  0  0  0  0  0  0  0  0  0
   -0.2053   -1.9524    0.0000 H   0  0  0  0  0  0  0  0  0  0  0  0
    0.5204   -2.3295    0.0000 H   0  0  0  0  0  0  0  0  0  0  0  0
   -0.7769   -1.7736    0.0000 H   0  0  0  0  0  0  0  0  0  0  0  0
   -0.7491   -0.4660    0.0000 H   0  0  0  0  0  0  0  0  0  0  0  0
   -0.1024    0.5141    0.0000 H   0  0  0  0  0  0  0  0  0  0  0  0
  1  2  1  0  0  0  0
  1 24  1  0  0  0  0
  1 25  1  0  0  0  0
  1 26  1  0  0  0  0
  2  3  1  0  0  0  0
  2 27  1  0  0  0  0
  2 28  1  0  0  0  0
  4  3  1  0  0  0  0
  3 29  1  0  0  0  0
  3 30  1  0  0  0  0
  4 22  1  6  0  0  0
  4  5  1  0  0  0  0
 19  4  1  0  0  0  0
  5  6  2  0  0  0  0
  5  7  1  0  0  0  0
  8  7  1  0  0  0  0
  8  9  1  0  0  0  0
 20  8  1  0  0  0  0
  8 31  1  1  0  0  0
 10  9  1  0  0  0  0
 10 11  1  6  0  0  0
 10 12  1  0  0  0  0
 10 21  1  0  0  0  0
 11 32  1  0  0  0  0
 11 33  1  0  0  0  0
 11 34  1  0  0  0  0
 12 13  1  0  0  0  0
 12 35  1  0  0  0  0
 12 36  1  0  0  0  0
 14 13  1  0  0  0  0
 13 37  1  0  0  0  0
 13 38  1  0  0  0  0
 14 23  1  6  0  0  0
 14 15  1  0  0  0  0
 20 14  1  0  0  0  0
 15 16  1  0  0  0  0
 15 17  1  0  0  0  0
 15 39  1  6  0  0  0
 16 40  1  0  0  0  0
 16 41  1  0  0  0  0
 16 42  1  0  0  0  0
 17 18  1  0  0  0  0
 17 43  1  0  0  0  0
 17 44  1  0  0  0  0
 19 18  1  0  0  0  0
 18 45  1  0  0  0  0
 18 46  1  0  0  0  0
 20 19  1  0  0  0  0
 19 47  1  6  0  0  0
 20 21  1  6  0  0  0
M  END
