
  Mrv171c004271813302D          

 49 52  0  0  0  0            999 V2000
    1.2195   -1.6934    0.0000 C   0  0  0  0  0  0  0  0  0  0  0  0
    0.5311   -1.2388    0.0000 C   0  0  1  0  0  0  0  0  0  0  0  0
   -0.1881   -1.6699    0.0000 C   0  0  0  0  0  0  0  0  0  0  0  0
   -0.7516   -1.0504    0.0000 C   0  0  0  0  0  0  0  0  0  0  0  0
   -0.6555   -0.1955    0.0000 C   0  0  1  0  0  0  0  0  0  0  0  0
   -1.4881    0.0372    0.0000 C   0  0  1  0  0  0  0  0  0  0  0  0
   -2.0484   -0.5684    0.0000 C   0  0  0  0  0  0  0  0  0  0  0  0
   -1.7767    0.8273    0.0000 C   0  0  1  0  0  0  0  0  0  0  0  0
   -2.5591    1.0887    0.0000 C   0  0  0  0  0  0  0  0  0  0  0  0
   -2.7239    1.8971    0.0000 C   0  0  0  0  0  0  0  0  0  0  0  0
   -3.5064    2.1586    0.0000 F   0  0  0  0  0  0  0  0  0  0  0  0
   -2.1063    2.4440    0.0000 F   0  0  0  0  0  0  0  0  0  0  0  0
   -1.0715    1.2849    0.0000 O   0  0  0  0  0  0  0  0  0  0  0  0
   -0.2567    1.0143    0.0000 C   0  0  2  0  0  0  0  0  0  0  0  0
    0.6760    0.7936    0.0000 O   0  0  0  0  0  0  0  0  0  0  0  0
    1.5080    1.0065    0.0000 C   0  0  1  0  0  0  0  0  0  0  0  0
    2.1934    1.4656    0.0000 C   0  0  0  0  0  0  0  0  0  0  0  0
    1.9938    0.3088    0.0000 C   0  0  0  0  0  0  0  0  0  0  0  0
    1.5050   -0.3803    0.0000 C   0  0  0  0  0  0  0  0  0  0  0  0
    0.6475   -0.3915    0.0000 C   0  0  2  0  0  0  0  0  0  0  0  0
    0.0868    0.3040    0.0000 C   0  0  1  0  0  0  0  0  0  0  0  0
    0.3254    1.2548    0.0000 O   0  0  0  0  0  0  0  0  0  0  0  0
    1.0516    1.7151    0.0000 O   0  0  0  0  0  0  0  0  0  0  0  0
   -1.2634   -0.7566    0.0000 H   0  0  0  0  0  0  0  0  0  0  0  0
   -0.1474   -0.6123    0.0000 H   0  0  0  0  0  0  0  0  0  0  0  0
    0.7649   -2.3818    0.0000 H   0  0  0  0  0  0  0  0  0  0  0  0
    1.9079   -2.1480    0.0000 H   0  0  0  0  0  0  0  0  0  0  0  0
    1.6741   -1.0050    0.0000 H   0  0  0  0  0  0  0  0  0  0  0  0
    1.2826   -0.8984    0.0000 H   0  0  0  0  0  0  0  0  0  0  0  0
   -0.6860   -2.3277    0.0000 H   0  0  0  0  0  0  0  0  0  0  0  0
    0.0989   -2.4434    0.0000 H   0  0  0  0  0  0  0  0  0  0  0  0
   -1.5696   -0.9431    0.0000 H   0  0  0  0  0  0  0  0  0  0  0  0
   -1.3516   -1.6167    0.0000 H   0  0  0  0  0  0  0  0  0  0  0  0
   -0.7868    0.6190    0.0000 H   0  0  0  0  0  0  0  0  0  0  0  0
   -2.4089    0.1737    0.0000 H   0  0  0  0  0  0  0  0  0  0  0  0
   -2.8708   -0.6344    0.0000 H   0  0  0  0  0  0  0  0  0  0  0  0
   -2.2859   -1.3585    0.0000 H   0  0  0  0  0  0  0  0  0  0  0  0
   -1.8808    1.6457    0.0000 H   0  0  0  0  0  0  0  0  0  0  0  0
   -3.3382    1.3602    0.0000 H   0  0  0  0  0  0  0  0  0  0  0  0
   -3.1906    0.5578    0.0000 H   0  0  0  0  0  0  0  0  0  0  0  0
   -2.8887    2.7055    0.0000 H   0  0  0  0  0  0  0  0  0  0  0  0
   -0.2860    1.8388    0.0000 H   0  0  0  0  0  0  0  0  0  0  0  0
    2.6526    0.7802    0.0000 H   0  0  0  0  0  0  0  0  0  0  0  0
    2.8789    1.9247    0.0000 H   0  0  0  0  0  0  0  0  0  0  0  0
    1.7343    2.1511    0.0000 H   0  0  0  0  0  0  0  0  0  0  0  0
    2.2527   -0.4746    0.0000 H   0  0  0  0  0  0  0  0  0  0  0  0
    2.7781    0.0530    0.0000 H   0  0  0  0  0  0  0  0  0  0  0  0
    1.4090    0.4391    0.0000 H   0  0  0  0  0  0  0  0  0  0  0  0
    0.8850    0.1641    0.0000 H   0  0  0  0  0  0  0  0  0  0  0  0
  2  1  1  1  0  0  0
  1 26  1  0  0  0  0
  1 27  1  0  0  0  0
  1 28  1  0  0  0  0
  2  3  1  0  0  0  0
 20  2  1  0  0  0  0
  2 29  1  6  0  0  0
  3  4  1  0  0  0  0
  3 30  1  0  0  0  0
  3 31  1  0  0  0  0
  5  4  1  0  0  0  0
  4 32  1  0  0  0  0
  4 33  1  0  0  0  0
  5  6  1  0  0  0  0
 21  5  1  0  0  0  0
  5 34  1  6  0  0  0
  6 24  1  6  0  0  0
  6  7  1  1  0  0  0
  6  8  1  0  0  0  0
  7 35  1  0  0  0  0
  7 36  1  0  0  0  0
  7 37  1  0  0  0  0
  8  9  1  1  0  0  0
  8 13  1  0  0  0  0
  8 38  1  6  0  0  0
  9 10  1  0  0  0  0
  9 39  1  0  0  0  0
  9 40  1  0  0  0  0
 10 11  1  0  0  0  0
 10 12  1  0  0  0  0
 10 41  1  0  0  0  0
 14 13  1  0  0  0  0
 14 15  1  0  0  0  0
 21 14  1  0  0  0  0
 14 42  1  1  0  0  0
 16 15  1  0  0  0  0
 16 17  1  1  0  0  0
 16 18  1  0  0  0  0
 16 23  1  0  0  0  0
 17 43  1  0  0  0  0
 17 44  1  0  0  0  0
 17 45  1  0  0  0  0
 18 19  1  0  0  0  0
 18 46  1  0  0  0  0
 18 47  1  0  0  0  0
 20 19  1  0  0  0  0
 19 48  1  0  0  0  0
 19 49  1  0  0  0  0
 20 25  1  6  0  0  0
 21 20  1  0  0  0  0
 21 22  1  6  0  0  0
 22 23  1  0  0  0  0
M  END
