
  Mrv171c004271813302D          

 52 55  0  0  0  0            999 V2000
   -0.1166    3.8837    0.0000 C   0  0  0  0  0  0  0  0  0  0  0  0
   -0.0355    3.0627    0.0000 C   0  0  0  0  0  0  0  0  0  0  0  0
    0.7161    2.7225    0.0000 O   0  0  0  0  0  0  0  0  0  0  0  0
    0.7973    1.9015    0.0000 C   0  0  0  0  0  0  0  0  0  0  0  0
    0.1269    1.4207    0.0000 O   0  0  0  0  0  0  0  0  0  0  0  0
    1.5489    1.5613    0.0000 C   0  0  0  0  0  0  0  0  0  0  0  0
    1.6300    0.7403    0.0000 C   0  0  0  0  0  0  0  0  0  0  0  0
    0.9596    0.2595    0.0000 C   0  0  1  0  0  0  0  0  0  0  0  0
    1.4635   -0.4403    0.0000 C   0  0  0  0  0  0  0  0  0  0  0  0
    0.9793   -1.1441    0.0000 C   0  0  0  0  0  0  0  0  0  0  0  0
    0.1210   -1.2008    0.0000 C   0  0  1  0  0  0  0  0  0  0  0  0
   -0.0027   -2.0500    0.0000 C   0  0  1  0  0  0  0  0  0  0  0  0
    0.6757   -2.5195    0.0000 C   0  0  0  0  0  0  0  0  0  0  0  0
   -0.7364   -2.4553    0.0000 C   0  0  0  0  0  0  0  0  0  0  0  0
   -1.2868   -1.8383    0.0000 C   0  0  0  0  0  0  0  0  0  0  0  0
   -1.1988   -0.9972    0.0000 C   0  0  1  0  0  0  0  0  0  0  0  0
   -2.0147   -0.7227    0.0000 C   0  0  0  0  0  0  0  0  0  0  0  0
   -2.3265    0.0678    0.0000 C   0  0  0  0  0  0  0  0  0  0  0  0
   -1.6168    0.5213    0.0000 O   0  0  0  0  0  0  0  0  0  0  0  0
   -0.7885    0.2244    0.0000 C   0  0  2  0  0  0  0  0  0  0  0  0
    0.1468   -0.0256    0.0000 O   0  0  0  0  0  0  0  0  0  0  0  0
   -0.4588   -0.5061    0.0000 C   0  0  1  0  0  0  0  0  0  0  0  0
   -0.2101    0.4248    0.0000 O   0  0  0  0  0  0  0  0  0  0  0  0
    0.4598    0.9592    0.0000 O   0  0  0  0  0  0  0  0  0  0  0  0
   -0.6729   -1.4252    0.0000 H   0  0  0  0  0  0  0  0  0  0  0  0
    0.7044    3.9649    0.0000 H   0  0  0  0  0  0  0  0  0  0  0  0
   -0.1978    4.7047    0.0000 H   0  0  0  0  0  0  0  0  0  0  0  0
   -0.9376    3.8025    0.0000 H   0  0  0  0  0  0  0  0  0  0  0  0
   -0.8503    2.9339    0.0000 H   0  0  0  0  0  0  0  0  0  0  0  0
   -0.4188    2.3322    0.0000 H   0  0  0  0  0  0  0  0  0  0  0  0
    2.3638    1.6900    0.0000 H   0  0  0  0  0  0  0  0  0  0  0  0
    1.9322    2.2918    0.0000 H   0  0  0  0  0  0  0  0  0  0  0  0
    2.1490    0.0989    0.0000 H   0  0  0  0  0  0  0  0  0  0  0  0
    2.4544    0.7736    0.0000 H   0  0  0  0  0  0  0  0  0  0  0  0
    1.7418   -1.2169    0.0000 H   0  0  0  0  0  0  0  0  0  0  0  0
    2.2563   -0.6684    0.0000 H   0  0  0  0  0  0  0  0  0  0  0  0
    0.9673   -1.9690    0.0000 H   0  0  0  0  0  0  0  0  0  0  0  0
    0.5715   -0.4270    0.0000 H   0  0  0  0  0  0  0  0  0  0  0  0
    0.7538   -1.7208    0.0000 H   0  0  0  0  0  0  0  0  0  0  0  0
   -0.0041   -2.9868    0.0000 H   0  0  0  0  0  0  0  0  0  0  0  0
    0.8712   -3.3210    0.0000 H   0  0  0  0  0  0  0  0  0  0  0  0
    1.4944   -2.6215    0.0000 H   0  0  0  0  0  0  0  0  0  0  0  0
   -1.4746   -2.8236    0.0000 H   0  0  0  0  0  0  0  0  0  0  0  0
   -1.0287   -3.2268    0.0000 H   0  0  0  0  0  0  0  0  0  0  0  0
   -2.1049   -1.7317    0.0000 H   0  0  0  0  0  0  0  0  0  0  0  0
   -1.8884   -2.4028    0.0000 H   0  0  0  0  0  0  0  0  0  0  0  0
   -1.3063   -0.1792    0.0000 H   0  0  0  0  0  0  0  0  0  0  0  0
   -2.7853   -1.0173    0.0000 H   0  0  0  0  0  0  0  0  0  0  0  0
   -2.2696   -1.5073    0.0000 H   0  0  0  0  0  0  0  0  0  0  0  0
   -2.8921    0.6683    0.0000 H   0  0  0  0  0  0  0  0  0  0  0  0
   -3.1368   -0.0872    0.0000 H   0  0  0  0  0  0  0  0  0  0  0  0
   -0.7841    1.0494    0.0000 H   0  0  0  0  0  0  0  0  0  0  0  0
  1  2  1  0  0  0  0
  1 26  1  0  0  0  0
  1 27  1  0  0  0  0
  1 28  1  0  0  0  0
  2  3  1  0  0  0  0
  2 29  1  0  0  0  0
  2 30  1  0  0  0  0
  3  4  1  0  0  0  0
  4  5  2  0  0  0  0
  4  6  1  0  0  0  0
  6  7  1  0  0  0  0
  6 31  1  0  0  0  0
  6 32  1  0  0  0  0
  8  7  1  1  0  0  0
  7 33  1  0  0  0  0
  7 34  1  0  0  0  0
  8  9  1  0  0  0  0
  8 21  1  0  0  0  0
  8 24  1  0  0  0  0
  9 10  1  0  0  0  0
  9 35  1  0  0  0  0
  9 36  1  0  0  0  0
 11 10  1  0  0  0  0
 10 37  1  0  0  0  0
 10 38  1  0  0  0  0
 11 25  1  6  0  0  0
 11 12  1  0  0  0  0
 22 11  1  0  0  0  0
 12 13  1  1  0  0  0
 12 14  1  0  0  0  0
 12 39  1  6  0  0  0
 13 40  1  0  0  0  0
 13 41  1  0  0  0  0
 13 42  1  0  0  0  0
 14 15  1  0  0  0  0
 14 43  1  0  0  0  0
 14 44  1  0  0  0  0
 16 15  1  0  0  0  0
 15 45  1  0  0  0  0
 15 46  1  0  0  0  0
 16 17  1  0  0  0  0
 22 16  1  0  0  0  0
 16 47  1  6  0  0  0
 17 18  1  0  0  0  0
 17 48  1  0  0  0  0
 17 49  1  0  0  0  0
 18 19  1  0  0  0  0
 18 50  1  0  0  0  0
 18 51  1  0  0  0  0
 20 19  1  0  0  0  0
 20 21  1  0  0  0  0
 22 20  1  0  0  0  0
 20 52  1  1  0  0  0
 22 23  1  6  0  0  0
 23 24  1  0  0  0  0
M  END
