
  Mrv171c004271813302D          

 44 47  0  0  0  0            999 V2000
    0.9228   -1.3975    0.0000 C   0  0  0  0  0  0  0  0  0  0  0  0
    0.2344   -0.9429    0.0000 C   0  0  1  0  0  0  0  0  0  0  0  0
   -0.4848   -1.3741    0.0000 C   0  0  0  0  0  0  0  0  0  0  0  0
   -1.0483   -0.7546    0.0000 C   0  0  0  0  0  0  0  0  0  0  0  0
   -0.9522    0.1004    0.0000 C   0  0  1  0  0  0  0  0  0  0  0  0
   -1.7848    0.3330    0.0000 C   0  0  2  0  0  0  0  0  0  0  0  0
   -1.8383   -0.4902    0.0000 O   0  0  0  0  0  0  0  0  0  0  0  0
   -2.6014    0.2158    0.0000 C   0  0  0  0  0  0  0  0  0  0  0  0
   -2.9082   -0.5501    0.0000 O   0  0  0  0  0  0  0  0  0  0  0  0
   -2.0733    1.1231    0.0000 C   0  0  0  0  0  0  0  0  0  0  0  0
   -2.8558    1.3846    0.0000 O   0  0  0  0  0  0  0  0  0  0  0  0
   -1.3682    1.5808    0.0000 O   0  0  0  0  0  0  0  0  0  0  0  0
   -0.5534    1.3101    0.0000 C   0  0  2  0  0  0  0  0  0  0  0  0
    0.3793    1.0894    0.0000 O   0  0  0  0  0  0  0  0  0  0  0  0
    1.2113    1.3024    0.0000 C   0  0  1  0  0  0  0  0  0  0  0  0
    1.8968    1.7615    0.0000 C   0  0  0  0  0  0  0  0  0  0  0  0
    1.6971    0.6046    0.0000 C   0  0  0  0  0  0  0  0  0  0  0  0
    1.2083   -0.0844    0.0000 C   0  0  0  0  0  0  0  0  0  0  0  0
    0.3508   -0.0956    0.0000 C   0  0  2  0  0  0  0  0  0  0  0  0
   -0.2098    0.5998    0.0000 C   0  0  1  0  0  0  0  0  0  0  0  0
    0.0288    1.5506    0.0000 O   0  0  0  0  0  0  0  0  0  0  0  0
    0.7549    2.0110    0.0000 O   0  0  0  0  0  0  0  0  0  0  0  0
   -0.4643    0.0316    0.0000 H   0  0  0  0  0  0  0  0  0  0  0  0
    0.4682   -2.0860    0.0000 H   0  0  0  0  0  0  0  0  0  0  0  0
    1.6113   -1.8521    0.0000 H   0  0  0  0  0  0  0  0  0  0  0  0
    1.3775   -0.7091    0.0000 H   0  0  0  0  0  0  0  0  0  0  0  0
    0.9859   -0.6025    0.0000 H   0  0  0  0  0  0  0  0  0  0  0  0
   -0.9827   -2.0319    0.0000 H   0  0  0  0  0  0  0  0  0  0  0  0
   -0.1978   -2.1475    0.0000 H   0  0  0  0  0  0  0  0  0  0  0  0
   -1.4989   -1.4456    0.0000 H   0  0  0  0  0  0  0  0  0  0  0  0
   -0.2634   -0.5005    0.0000 H   0  0  0  0  0  0  0  0  0  0  0  0
   -1.0835    0.9148    0.0000 H   0  0  0  0  0  0  0  0  0  0  0  0
   -2.5232   -0.9503    0.0000 H   0  0  0  0  0  0  0  0  0  0  0  0
   -2.7660    1.0242    0.0000 H   0  0  0  0  0  0  0  0  0  0  0  0
   -3.3481    0.5666    0.0000 H   0  0  0  0  0  0  0  0  0  0  0  0
   -3.7180   -0.7079    0.0000 H   0  0  0  0  0  0  0  0  0  0  0  0
   -0.5827    2.1346    0.0000 H   0  0  0  0  0  0  0  0  0  0  0  0
    2.3559    1.0760    0.0000 H   0  0  0  0  0  0  0  0  0  0  0  0
    2.5822    2.2206    0.0000 H   0  0  0  0  0  0  0  0  0  0  0  0
    1.4377    2.4469    0.0000 H   0  0  0  0  0  0  0  0  0  0  0  0
    1.9561   -0.1787    0.0000 H   0  0  0  0  0  0  0  0  0  0  0  0
    2.4815    0.3489    0.0000 H   0  0  0  0  0  0  0  0  0  0  0  0
    1.1123    0.7350    0.0000 H   0  0  0  0  0  0  0  0  0  0  0  0
    0.5884    0.4599    0.0000 H   0  0  0  0  0  0  0  0  0  0  0  0
  2  1  1  1  0  0  0
  1 24  1  0  0  0  0
  1 25  1  0  0  0  0
  1 26  1  0  0  0  0
  2  3  1  0  0  0  0
 19  2  1  0  0  0  0
  2 27  1  6  0  0  0
  3  4  1  0  0  0  0
  3 28  1  0  0  0  0
  3 29  1  0  0  0  0
  5  4  1  0  0  0  0
  4 30  1  0  0  0  0
  4 31  1  0  0  0  0
  5  6  1  0  0  0  0
 20  5  1  0  0  0  0
  5 32  1  6  0  0  0
  6  7  1  1  0  0  0
  6  8  1  6  0  0  0
  6 10  1  0  0  0  0
  7 33  1  0  0  0  0
  8  9  1  0  0  0  0
  8 34  1  0  0  0  0
  8 35  1  0  0  0  0
  9 36  1  0  0  0  0
 10 11  2  0  0  0  0
 10 12  1  0  0  0  0
 13 12  1  0  0  0  0
 13 14  1  0  0  0  0
 20 13  1  0  0  0  0
 13 37  1  1  0  0  0
 15 14  1  0  0  0  0
 15 16  1  1  0  0  0
 15 17  1  0  0  0  0
 15 22  1  0  0  0  0
 16 38  1  0  0  0  0
 16 39  1  0  0  0  0
 16 40  1  0  0  0  0
 17 18  1  0  0  0  0
 17 41  1  0  0  0  0
 17 42  1  0  0  0  0
 19 18  1  0  0  0  0
 18 43  1  0  0  0  0
 18 44  1  0  0  0  0
 19 23  1  6  0  0  0
 20 19  1  0  0  0  0
 20 21  1  6  0  0  0
 21 22  1  0  0  0  0
M  END
