
  Mrv171c004271813302D          

 58 62  0  0  0  0            999 V2000
   -0.1611   -3.0743    0.0000 C   0  0  0  0  0  0  0  0  0  0  0  0
   -0.8496   -2.6196    0.0000 C   0  0  1  0  0  0  0  0  0  0  0  0
   -1.5688   -3.0508    0.0000 C   0  0  0  0  0  0  0  0  0  0  0  0
   -2.1323   -2.4313    0.0000 C   0  0  0  0  0  0  0  0  0  0  0  0
   -2.0361   -1.5764    0.0000 C   0  0  1  0  0  0  0  0  0  0  0  0
   -2.8688   -1.3437    0.0000 C   0  0  0  0  0  0  0  0  0  0  0  0
   -3.1573   -0.5536    0.0000 C   0  0  0  0  0  0  0  0  0  0  0  0
   -3.9398   -0.2922    0.0000 O   0  0  0  0  0  0  0  0  0  0  0  0
   -2.4522   -0.0960    0.0000 O   0  0  0  0  0  0  0  0  0  0  0  0
   -1.6373   -0.3666    0.0000 C   0  0  2  0  0  0  0  0  0  0  0  0
   -0.7047   -0.5873    0.0000 O   0  0  0  0  0  0  0  0  0  0  0  0
    0.1274   -0.3744    0.0000 C   0  0  1  0  0  0  0  0  0  0  0  0
    0.8128    0.0847    0.0000 C   0  0  0  0  0  0  0  0  0  0  0  0
    0.7579    0.9079    0.0000 C   0  0  0  0  0  0  0  0  0  0  0  0
    1.4434    1.3670    0.0000 C   0  0  0  0  0  0  0  0  0  0  0  0
    1.3885    2.1902    0.0000 C   0  0  0  0  0  0  0  0  0  0  0  0
    2.0739    2.6493    0.0000 C   0  0  0  0  0  0  0  0  0  0  0  0
    2.0191    3.4725    0.0000 C   0  0  0  0  0  0  0  0  0  0  0  0
    2.7045    3.9316    0.0000 C   0  0  0  0  0  0  0  0  0  0  0  0
    3.4448    3.5675    0.0000 C   0  0  0  0  0  0  0  0  0  0  0  0
    3.4997    2.7444    0.0000 C   0  0  0  0  0  0  0  0  0  0  0  0
    2.8143    2.2853    0.0000 C   0  0  0  0  0  0  0  0  0  0  0  0
    0.6131   -1.0721    0.0000 C   0  0  0  0  0  0  0  0  0  0  0  0
    0.1243   -1.7612    0.0000 C   0  0  0  0  0  0  0  0  0  0  0  0
   -0.7331   -1.7724    0.0000 C   0  0  2  0  0  0  0  0  0  0  0  0
   -1.2938   -1.0769    0.0000 C   0  0  1  0  0  0  0  0  0  0  0  0
   -1.0552   -0.1261    0.0000 O   0  0  0  0  0  0  0  0  0  0  0  0
   -0.3290    0.3343    0.0000 O   0  0  0  0  0  0  0  0  0  0  0  0
   -1.5280   -1.9932    0.0000 H   0  0  0  0  0  0  0  0  0  0  0  0
   -0.6158   -3.7627    0.0000 H   0  0  0  0  0  0  0  0  0  0  0  0
    0.5273   -3.5289    0.0000 H   0  0  0  0  0  0  0  0  0  0  0  0
    0.2935   -2.3858    0.0000 H   0  0  0  0  0  0  0  0  0  0  0  0
   -0.0981   -2.2793    0.0000 H   0  0  0  0  0  0  0  0  0  0  0  0
   -2.0667   -3.7086    0.0000 H   0  0  0  0  0  0  0  0  0  0  0  0
   -1.2818   -3.8243    0.0000 H   0  0  0  0  0  0  0  0  0  0  0  0
   -2.9503   -2.3240    0.0000 H   0  0  0  0  0  0  0  0  0  0  0  0
   -2.7322   -2.9976    0.0000 H   0  0  0  0  0  0  0  0  0  0  0  0
   -2.1675   -0.7619    0.0000 H   0  0  0  0  0  0  0  0  0  0  0  0
   -3.6380   -1.6419    0.0000 H   0  0  0  0  0  0  0  0  0  0  0  0
   -3.1064   -2.1338    0.0000 H   0  0  0  0  0  0  0  0  0  0  0  0
   -1.6667    0.4579    0.0000 H   0  0  0  0  0  0  0  0  0  0  0  0
    1.3110   -0.5728    0.0000 H   0  0  0  0  0  0  0  0  0  0  0  0
    1.6378    0.0917    0.0000 H   0  0  0  0  0  0  0  0  0  0  0  0
    0.2597    1.5655    0.0000 H   0  0  0  0  0  0  0  0  0  0  0  0
   -0.0670    0.9010    0.0000 H   0  0  0  0  0  0  0  0  0  0  0  0
    1.9416    0.7094    0.0000 H   0  0  0  0  0  0  0  0  0  0  0  0
    2.2683    1.3740    0.0000 H   0  0  0  0  0  0  0  0  0  0  0  0
    0.8903    2.8478    0.0000 H   0  0  0  0  0  0  0  0  0  0  0  0
    0.5635    2.1833    0.0000 H   0  0  0  0  0  0  0  0  0  0  0  0
    1.2787    3.8366    0.0000 H   0  0  0  0  0  0  0  0  0  0  0  0
    2.6496    4.7548    0.0000 H   0  0  0  0  0  0  0  0  0  0  0  0
    4.1303    4.0267    0.0000 H   0  0  0  0  0  0  0  0  0  0  0  0
    4.2400    2.3803    0.0000 H   0  0  0  0  0  0  0  0  0  0  0  0
    2.8692    1.4621    0.0000 H   0  0  0  0  0  0  0  0  0  0  0  0
    0.8721   -1.8554    0.0000 H   0  0  0  0  0  0  0  0  0  0  0  0
    1.3975   -1.3279    0.0000 H   0  0  0  0  0  0  0  0  0  0  0  0
    0.0283   -0.9418    0.0000 H   0  0  0  0  0  0  0  0  0  0  0  0
   -0.4956   -1.2168    0.0000 H   0  0  0  0  0  0  0  0  0  0  0  0
  2  1  1  1  0  0  0
  1 30  1  0  0  0  0
  1 31  1  0  0  0  0
  1 32  1  0  0  0  0
  2  3  1  0  0  0  0
 25  2  1  0  0  0  0
  2 33  1  6  0  0  0
  3  4  1  0  0  0  0
  3 34  1  0  0  0  0
  3 35  1  0  0  0  0
  5  4  1  0  0  0  0
  4 36  1  0  0  0  0
  4 37  1  0  0  0  0
  5  6  1  0  0  0  0
 26  5  1  0  0  0  0
  5 38  1  6  0  0  0
  6  7  1  0  0  0  0
  6 39  1  0  0  0  0
  6 40  1  0  0  0  0
  7  8  2  0  0  0  0
  7  9  1  0  0  0  0
 10  9  1  0  0  0  0
 10 11  1  0  0  0  0
 26 10  1  0  0  0  0
 10 41  1  1  0  0  0
 12 11  1  0  0  0  0
 12 13  1  1  0  0  0
 12 23  1  0  0  0  0
 12 28  1  0  0  0  0
 13 14  1  0  0  0  0
 13 42  1  0  0  0  0
 13 43  1  0  0  0  0
 14 15  1  0  0  0  0
 14 44  1  0  0  0  0
 14 45  1  0  0  0  0
 15 16  1  0  0  0  0
 15 46  1  0  0  0  0
 15 47  1  0  0  0  0
 16 17  1  0  0  0  0
 16 48  1  0  0  0  0
 16 49  1  0  0  0  0
 17 18  1  0  0  0  0
 17 22  2  0  0  0  0
 18 19  2  0  0  0  0
 18 50  1  0  0  0  0
 19 20  1  0  0  0  0
 19 51  1  0  0  0  0
 20 21  2  0  0  0  0
 20 52  1  0  0  0  0
 21 22  1  0  0  0  0
 21 53  1  0  0  0  0
 22 54  1  0  0  0  0
 23 24  1  0  0  0  0
 23 55  1  0  0  0  0
 23 56  1  0  0  0  0
 25 24  1  0  0  0  0
 24 57  1  0  0  0  0
 24 58  1  0  0  0  0
 25 29  1  6  0  0  0
 26 25  1  0  0  0  0
 26 27  1  6  0  0  0
 27 28  1  0  0  0  0
M  END
