
  Mrv171c004271813302D          

 43 46  0  0  0  0            999 V2000
    1.1620   -1.4605    0.0000 C   0  0  0  0  0  0  0  0  0  0  0  0
    0.4736   -1.0059    0.0000 C   0  0  1  0  0  0  0  0  0  0  0  0
   -0.2456   -1.4371    0.0000 C   0  0  0  0  0  0  0  0  0  0  0  0
   -0.8092   -0.8175    0.0000 C   0  0  0  0  0  0  0  0  0  0  0  0
   -0.7130    0.0374    0.0000 C   0  0  1  0  0  0  0  0  0  0  0  0
   -1.5457    0.2700    0.0000 C   0  0  1  0  0  0  0  0  0  0  0  0
   -2.1059   -0.3355    0.0000 C   0  0  0  0  0  0  0  0  0  0  0  0
   -1.8342    1.0601    0.0000 C   0  0  0  0  0  0  0  0  0  0  0  0
   -1.1291    1.5178    0.0000 O   0  0  0  0  0  0  0  0  0  0  0  0
   -0.3142    1.2472    0.0000 C   0  0  2  0  0  0  0  0  0  0  0  0
    0.6184    1.0265    0.0000 O   0  0  0  0  0  0  0  0  0  0  0  0
    1.4505    1.2394    0.0000 C   0  0  1  0  0  0  0  0  0  0  0  0
    2.1359    1.6985    0.0000 C   0  0  0  0  0  0  0  0  0  0  0  0
    1.9362    0.5416    0.0000 C   0  0  0  0  0  0  0  0  0  0  0  0
    1.4474   -0.1474    0.0000 C   0  0  0  0  0  0  0  0  0  0  0  0
    0.5900   -0.1586    0.0000 C   0  0  2  0  0  0  0  0  0  0  0  0
    0.0293    0.5368    0.0000 C   0  0  1  0  0  0  0  0  0  0  0  0
    0.2679    1.4876    0.0000 O   0  0  0  0  0  0  0  0  0  0  0  0
    0.9941    1.9480    0.0000 O   0  0  0  0  0  0  0  0  0  0  0  0
   -1.3209   -0.5238    0.0000 H   0  0  0  0  0  0  0  0  0  0  0  0
   -0.2049   -0.3794    0.0000 H   0  0  0  0  0  0  0  0  0  0  0  0
    0.7074   -2.1489    0.0000 H   0  0  0  0  0  0  0  0  0  0  0  0
    1.8504   -1.9151    0.0000 H   0  0  0  0  0  0  0  0  0  0  0  0
    1.6166   -0.7721    0.0000 H   0  0  0  0  0  0  0  0  0  0  0  0
    1.2251   -0.6655    0.0000 H   0  0  0  0  0  0  0  0  0  0  0  0
   -0.7435   -2.0949    0.0000 H   0  0  0  0  0  0  0  0  0  0  0  0
    0.0413   -2.2105    0.0000 H   0  0  0  0  0  0  0  0  0  0  0  0
   -1.6272   -0.7102    0.0000 H   0  0  0  0  0  0  0  0  0  0  0  0
   -1.4091   -1.3839    0.0000 H   0  0  0  0  0  0  0  0  0  0  0  0
   -0.8444    0.8518    0.0000 H   0  0  0  0  0  0  0  0  0  0  0  0
   -2.4664    0.4066    0.0000 H   0  0  0  0  0  0  0  0  0  0  0  0
   -2.9283   -0.4015    0.0000 H   0  0  0  0  0  0  0  0  0  0  0  0
   -2.3434   -1.1256    0.0000 H   0  0  0  0  0  0  0  0  0  0  0  0
   -2.0895    1.8446    0.0000 H   0  0  0  0  0  0  0  0  0  0  0  0
   -2.5551    1.4613    0.0000 H   0  0  0  0  0  0  0  0  0  0  0  0
   -0.3436    2.0716    0.0000 H   0  0  0  0  0  0  0  0  0  0  0  0
    2.5950    1.0131    0.0000 H   0  0  0  0  0  0  0  0  0  0  0  0
    2.8214    2.1576    0.0000 H   0  0  0  0  0  0  0  0  0  0  0  0
    1.6768    2.3840    0.0000 H   0  0  0  0  0  0  0  0  0  0  0  0
    2.1952   -0.2417    0.0000 H   0  0  0  0  0  0  0  0  0  0  0  0
    2.7206    0.2859    0.0000 H   0  0  0  0  0  0  0  0  0  0  0  0
    1.3515    0.6720    0.0000 H   0  0  0  0  0  0  0  0  0  0  0  0
    0.8275    0.3969    0.0000 H   0  0  0  0  0  0  0  0  0  0  0  0
  2  1  1  1  0  0  0
  1 22  1  0  0  0  0
  1 23  1  0  0  0  0
  1 24  1  0  0  0  0
  2  3  1  0  0  0  0
 16  2  1  0  0  0  0
  2 25  1  6  0  0  0
  3  4  1  0  0  0  0
  3 26  1  0  0  0  0
  3 27  1  0  0  0  0
  5  4  1  0  0  0  0
  4 28  1  0  0  0  0
  4 29  1  0  0  0  0
  5  6  1  0  0  0  0
 17  5  1  0  0  0  0
  5 30  1  6  0  0  0
  6 20  1  6  0  0  0
  6  7  1  1  0  0  0
  6  8  1  0  0  0  0
  7 31  1  0  0  0  0
  7 32  1  0  0  0  0
  7 33  1  0  0  0  0
  8  9  1  0  0  0  0
  8 34  1  0  0  0  0
  8 35  1  0  0  0  0
 10  9  1  0  0  0  0
 10 11  1  0  0  0  0
 17 10  1  0  0  0  0
 10 36  1  1  0  0  0
 12 11  1  0  0  0  0
 12 13  1  1  0  0  0
 12 14  1  0  0  0  0
 12 19  1  0  0  0  0
 13 37  1  0  0  0  0
 13 38  1  0  0  0  0
 13 39  1  0  0  0  0
 14 15  1  0  0  0  0
 14 40  1  0  0  0  0
 14 41  1  0  0  0  0
 16 15  1  0  0  0  0
 15 42  1  0  0  0  0
 15 43  1  0  0  0  0
 16 21  1  6  0  0  0
 17 16  1  0  0  0  0
 17 18  1  6  0  0  0
 18 19  1  0  0  0  0
M  END
