
  Mrv171c004271813302D          

 47 50  0  0  0  0            999 V2000
   -3.0345    0.5841    0.0000 C   0  0  0  0  0  0  0  0  0  0  0  0
   -2.4168    1.1310    0.0000 O   0  0  0  0  0  0  0  0  0  0  0  0
   -1.6344    0.8695    0.0000 C   0  0  1  0  0  0  0  0  0  0  0  0
   -0.9292    1.3272    0.0000 O   0  0  0  0  0  0  0  0  0  0  0  0
   -0.1144    1.0565    0.0000 C   0  0  2  0  0  0  0  0  0  0  0  0
    0.8183    0.8358    0.0000 O   0  0  0  0  0  0  0  0  0  0  0  0
    1.6503    1.0488    0.0000 C   0  0  1  0  0  0  0  0  0  0  0  0
    2.3358    1.5079    0.0000 C   0  0  0  0  0  0  0  0  0  0  0  0
    2.1361    0.3510    0.0000 C   0  0  0  0  0  0  0  0  0  0  0  0
    1.6473   -0.3380    0.0000 C   0  0  0  0  0  0  0  0  0  0  0  0
    0.7898   -0.3492    0.0000 C   0  0  1  0  0  0  0  0  0  0  0  0
    0.6734   -1.1965    0.0000 C   0  0  1  0  0  0  0  0  0  0  0  0
    1.3618   -1.6511    0.0000 C   0  0  0  0  0  0  0  0  0  0  0  0
   -0.0458   -1.6277    0.0000 C   0  0  0  0  0  0  0  0  0  0  0  0
   -0.6093   -1.0082    0.0000 C   0  0  0  0  0  0  0  0  0  0  0  0
   -0.5132   -0.1533    0.0000 C   0  0  1  0  0  0  0  0  0  0  0  0
   -1.3458    0.0794    0.0000 C   0  0  1  0  0  0  0  0  0  0  0  0
   -1.9061   -0.5262    0.0000 C   0  0  0  0  0  0  0  0  0  0  0  0
    0.2292    0.3462    0.0000 C   0  0  1  0  0  0  0  0  0  0  0  0
    0.4677    1.2970    0.0000 O   0  0  0  0  0  0  0  0  0  0  0  0
    1.1939    1.7574    0.0000 O   0  0  0  0  0  0  0  0  0  0  0  0
    1.1409    0.3973    0.0000 H   0  0  0  0  0  0  0  0  0  0  0  0
   -1.1211   -0.7144    0.0000 H   0  0  0  0  0  0  0  0  0  0  0  0
   -3.5814    1.2018    0.0000 H   0  0  0  0  0  0  0  0  0  0  0  0
   -3.6522    0.0372    0.0000 H   0  0  0  0  0  0  0  0  0  0  0  0
   -2.4876   -0.0336    0.0000 H   0  0  0  0  0  0  0  0  0  0  0  0
   -2.2096    0.2782    0.0000 H   0  0  0  0  0  0  0  0  0  0  0  0
   -0.1437    1.8810    0.0000 H   0  0  0  0  0  0  0  0  0  0  0  0
    2.7949    0.8224    0.0000 H   0  0  0  0  0  0  0  0  0  0  0  0
    3.0212    1.9670    0.0000 H   0  0  0  0  0  0  0  0  0  0  0  0
    1.8767    2.1933    0.0000 H   0  0  0  0  0  0  0  0  0  0  0  0
    2.3951   -0.4323    0.0000 H   0  0  0  0  0  0  0  0  0  0  0  0
    2.9204    0.0953    0.0000 H   0  0  0  0  0  0  0  0  0  0  0  0
    1.2114   -1.0385    0.0000 H   0  0  0  0  0  0  0  0  0  0  0  0
    2.0019   -1.0829    0.0000 H   0  0  0  0  0  0  0  0  0  0  0  0
   -0.0150   -0.7419    0.0000 H   0  0  0  0  0  0  0  0  0  0  0  0
    0.6497   -2.0676    0.0000 H   0  0  0  0  0  0  0  0  0  0  0  0
    1.4205   -2.4740    0.0000 H   0  0  0  0  0  0  0  0  0  0  0  0
    2.1259   -1.9624    0.0000 H   0  0  0  0  0  0  0  0  0  0  0  0
   -0.7723   -2.0185    0.0000 H   0  0  0  0  0  0  0  0  0  0  0  0
   -0.3049   -2.4109    0.0000 H   0  0  0  0  0  0  0  0  0  0  0  0
   -1.4273   -0.9008    0.0000 H   0  0  0  0  0  0  0  0  0  0  0  0
   -1.2093   -1.5745    0.0000 H   0  0  0  0  0  0  0  0  0  0  0  0
   -0.6445    0.6612    0.0000 H   0  0  0  0  0  0  0  0  0  0  0  0
   -2.7276   -0.6022    0.0000 H   0  0  0  0  0  0  0  0  0  0  0  0
   -2.4270   -1.1659    0.0000 H   0  0  0  0  0  0  0  0  0  0  0  0
   -1.8142   -1.3460    0.0000 H   0  0  0  0  0  0  0  0  0  0  0  0
  1  2  1  0  0  0  0
  1 24  1  0  0  0  0
  1 25  1  0  0  0  0
  1 26  1  0  0  0  0
  3  2  1  1  0  0  0
  3  4  1  0  0  0  0
 17  3  1  0  0  0  0
  3 27  1  6  0  0  0
  5  4  1  0  0  0  0
  5  6  1  0  0  0  0
 19  5  1  0  0  0  0
  5 28  1  1  0  0  0
  7  6  1  0  0  0  0
  7  8  1  1  0  0  0
  7  9  1  0  0  0  0
  7 21  1  0  0  0  0
  8 29  1  0  0  0  0
  8 30  1  0  0  0  0
  8 31  1  0  0  0  0
  9 10  1  0  0  0  0
  9 32  1  0  0  0  0
  9 33  1  0  0  0  0
 11 10  1  0  0  0  0
 10 34  1  0  0  0  0
 10 35  1  0  0  0  0
 11 22  1  6  0  0  0
 11 12  1  0  0  0  0
 19 11  1  0  0  0  0
 12 13  1  0  0  0  0
 12 14  1  1  0  0  0
 12 36  1  6  0  0  0
 13 37  1  0  0  0  0
 13 38  1  0  0  0  0
 13 39  1  0  0  0  0
 14 15  1  0  0  0  0
 14 40  1  0  0  0  0
 14 41  1  0  0  0  0
 16 15  1  0  0  0  0
 15 42  1  0  0  0  0
 15 43  1  0  0  0  0
 16 17  1  0  0  0  0
 19 16  1  0  0  0  0
 16 44  1  6  0  0  0
 17 23  1  6  0  0  0
 17 18  1  1  0  0  0
 18 45  1  0  0  0  0
 18 46  1  0  0  0  0
 18 47  1  0  0  0  0
 19 20  1  6  0  0  0
 20 21  1  0  0  0  0
M  END
