
  Mrv171c004271813302D          

 53 56  0  0  0  0            999 V2000
   -1.6663   -2.4398    0.0000 C   0  0  0  0  0  0  0  0  0  0  0  0
   -1.9106   -1.6518    0.0000 C   0  0  0  0  0  0  0  0  0  0  0  0
   -1.3504   -1.0463    0.0000 C   0  0  0  0  0  0  0  0  0  0  0  0
   -1.5947   -0.2583    0.0000 C   0  0  0  0  0  0  0  0  0  0  0  0
   -1.0344    0.3473    0.0000 C   0  0  1  0  0  0  0  0  0  0  0  0
   -1.3229    1.1374    0.0000 C   0  0  1  0  0  0  0  0  0  0  0  0
   -2.1054    1.3989    0.0000 O   0  0  0  0  0  0  0  0  0  0  0  0
   -0.6178    1.5950    0.0000 O   0  0  0  0  0  0  0  0  0  0  0  0
    0.1970    1.3244    0.0000 C   0  0  2  0  0  0  0  0  0  0  0  0
    1.1297    1.1037    0.0000 O   0  0  0  0  0  0  0  0  0  0  0  0
    1.9618    1.3167    0.0000 C   0  0  1  0  0  0  0  0  0  0  0  0
    2.6472    1.7758    0.0000 C   0  0  0  0  0  0  0  0  0  0  0  0
    2.4475    0.6189    0.0000 C   0  0  0  0  0  0  0  0  0  0  0  0
    1.9587   -0.0701    0.0000 C   0  0  0  0  0  0  0  0  0  0  0  0
    1.1013   -0.0813    0.0000 C   0  0  1  0  0  0  0  0  0  0  0  0
    0.9848   -0.9286    0.0000 C   0  0  1  0  0  0  0  0  0  0  0  0
    1.6733   -1.3833    0.0000 C   0  0  0  0  0  0  0  0  0  0  0  0
    0.2656   -1.3598    0.0000 C   0  0  0  0  0  0  0  0  0  0  0  0
   -0.2979   -0.7403    0.0000 C   0  0  0  0  0  0  0  0  0  0  0  0
   -0.2017    0.1146    0.0000 C   0  0  2  0  0  0  0  0  0  0  0  0
    0.5406    0.6141    0.0000 C   0  0  1  0  0  0  0  0  0  0  0  0
    0.7792    1.5649    0.0000 O   0  0  0  0  0  0  0  0  0  0  0  0
    1.5054    2.0253    0.0000 O   0  0  0  0  0  0  0  0  0  0  0  0
   -0.8097   -0.4465    0.0000 H   0  0  0  0  0  0  0  0  0  0  0  0
    1.4524    0.6652    0.0000 H   0  0  0  0  0  0  0  0  0  0  0  0
   -2.4543   -2.6841    0.0000 H   0  0  0  0  0  0  0  0  0  0  0  0
   -1.4220   -3.2278    0.0000 H   0  0  0  0  0  0  0  0  0  0  0  0
   -0.8783   -2.1955    0.0000 H   0  0  0  0  0  0  0  0  0  0  0  0
   -2.5478   -1.1277    0.0000 H   0  0  0  0  0  0  0  0  0  0  0  0
   -2.7115   -1.8499    0.0000 H   0  0  0  0  0  0  0  0  0  0  0  0
   -0.7132   -1.5704    0.0000 H   0  0  0  0  0  0  0  0  0  0  0  0
   -0.5495   -0.8482    0.0000 H   0  0  0  0  0  0  0  0  0  0  0  0
   -2.2318    0.2658    0.0000 H   0  0  0  0  0  0  0  0  0  0  0  0
   -2.3955   -0.4563    0.0000 H   0  0  0  0  0  0  0  0  0  0  0  0
   -1.8982    0.5460    0.0000 H   0  0  0  0  0  0  0  0  0  0  0  0
   -2.6637    2.0062    0.0000 H   0  0  0  0  0  0  0  0  0  0  0  0
    0.1677    2.1489    0.0000 H   0  0  0  0  0  0  0  0  0  0  0  0
    3.1063    1.0903    0.0000 H   0  0  0  0  0  0  0  0  0  0  0  0
    3.3327    2.2349    0.0000 H   0  0  0  0  0  0  0  0  0  0  0  0
    2.1881    2.4612    0.0000 H   0  0  0  0  0  0  0  0  0  0  0  0
    2.7065   -0.1644    0.0000 H   0  0  0  0  0  0  0  0  0  0  0  0
    3.2319    0.3631    0.0000 H   0  0  0  0  0  0  0  0  0  0  0  0
    1.5228   -0.7706    0.0000 H   0  0  0  0  0  0  0  0  0  0  0  0
    2.3134   -0.8150    0.0000 H   0  0  0  0  0  0  0  0  0  0  0  0
    0.2964   -0.4740    0.0000 H   0  0  0  0  0  0  0  0  0  0  0  0
    0.9611   -1.7997    0.0000 H   0  0  0  0  0  0  0  0  0  0  0  0
    1.7319   -2.2062    0.0000 H   0  0  0  0  0  0  0  0  0  0  0  0
    2.4373   -1.6945    0.0000 H   0  0  0  0  0  0  0  0  0  0  0  0
   -0.4640   -1.7448    0.0000 H   0  0  0  0  0  0  0  0  0  0  0  0
    0.2333   -2.1842    0.0000 H   0  0  0  0  0  0  0  0  0  0  0  0
   -0.6707   -0.0043    0.0000 H   0  0  0  0  0  0  0  0  0  0  0  0
    0.5097   -0.9088    0.0000 H   0  0  0  0  0  0  0  0  0  0  0  0
   -0.3331    0.9291    0.0000 H   0  0  0  0  0  0  0  0  0  0  0  0
  1  2  1  0  0  0  0
  1 26  1  0  0  0  0
  1 27  1  0  0  0  0
  1 28  1  0  0  0  0
  2  3  1  0  0  0  0
  2 29  1  0  0  0  0
  2 30  1  0  0  0  0
  3  4  1  0  0  0  0
  3 31  1  0  0  0  0
  3 32  1  0  0  0  0
  5  4  1  1  0  0  0
  4 33  1  0  0  0  0
  4 34  1  0  0  0  0
  5 24  1  6  0  0  0
  5  6  1  0  0  0  0
 20  5  1  0  0  0  0
  6  7  1  1  0  0  0
  6  8  1  0  0  0  0
  6 35  1  6  0  0  0
  7 36  1  0  0  0  0
  9  8  1  0  0  0  0
  9 10  1  0  0  0  0
 21  9  1  0  0  0  0
  9 37  1  1  0  0  0
 11 10  1  0  0  0  0
 11 12  1  1  0  0  0
 11 13  1  0  0  0  0
 11 23  1  0  0  0  0
 12 38  1  0  0  0  0
 12 39  1  0  0  0  0
 12 40  1  0  0  0  0
 13 14  1  0  0  0  0
 13 41  1  0  0  0  0
 13 42  1  0  0  0  0
 15 14  1  0  0  0  0
 14 43  1  0  0  0  0
 14 44  1  0  0  0  0
 15 25  1  6  0  0  0
 15 16  1  0  0  0  0
 21 15  1  0  0  0  0
 16 17  1  0  0  0  0
 16 18  1  1  0  0  0
 16 45  1  6  0  0  0
 17 46  1  0  0  0  0
 17 47  1  0  0  0  0
 17 48  1  0  0  0  0
 18 19  1  0  0  0  0
 18 49  1  0  0  0  0
 18 50  1  0  0  0  0
 20 19  1  0  0  0  0
 19 51  1  0  0  0  0
 19 52  1  0  0  0  0
 21 20  1  0  0  0  0
 20 53  1  6  0  0  0
 21 22  1  6  0  0  0
 22 23  1  0  0  0  0
M  END
