
  Mrv171c004271813302D          

 53 56  0  0  0  0            999 V2000
    1.8160   -1.6398    0.0000 C   0  0  0  0  0  0  0  0  0  0  0  0
    1.1276   -1.1852    0.0000 C   0  0  1  0  0  0  0  0  0  0  0  0
    0.4084   -1.6163    0.0000 C   0  0  0  0  0  0  0  0  0  0  0  0
   -0.1551   -0.9968    0.0000 C   0  0  0  0  0  0  0  0  0  0  0  0
   -0.0590   -0.1419    0.0000 C   0  0  1  0  0  0  0  0  0  0  0  0
   -0.8916    0.0908    0.0000 C   0  0  1  0  0  0  0  0  0  0  0  0
   -1.4519   -0.5148    0.0000 C   0  0  0  0  0  0  0  0  0  0  0  0
   -1.1802    0.8809    0.0000 C   0  0  1  0  0  0  0  0  0  0  0  0
   -1.9626    1.1423    0.0000 C   0  0  0  0  0  0  0  0  0  0  0  0
   -2.5803    0.5954    0.0000 C   0  0  0  0  0  0  0  0  0  0  0  0
   -3.3628    0.8569    0.0000 C   0  0  0  0  0  0  0  0  0  0  0  0
   -3.9804    0.3100    0.0000 O   0  0  0  0  0  0  0  0  0  0  0  0
   -0.4750    1.3385    0.0000 O   0  0  0  0  0  0  0  0  0  0  0  0
    0.3398    1.0679    0.0000 C   0  0  2  0  0  0  0  0  0  0  0  0
    1.2725    0.8472    0.0000 O   0  0  0  0  0  0  0  0  0  0  0  0
    2.1045    1.0601    0.0000 C   0  0  1  0  0  0  0  0  0  0  0  0
    2.7900    1.5192    0.0000 C   0  0  0  0  0  0  0  0  0  0  0  0
    2.5903    0.3624    0.0000 C   0  0  0  0  0  0  0  0  0  0  0  0
    2.1015   -0.3267    0.0000 C   0  0  0  0  0  0  0  0  0  0  0  0
    1.2440   -0.3379    0.0000 C   0  0  2  0  0  0  0  0  0  0  0  0
    0.6834    0.3576    0.0000 C   0  0  1  0  0  0  0  0  0  0  0  0
    0.9219    1.3084    0.0000 O   0  0  0  0  0  0  0  0  0  0  0  0
    1.6481    1.7688    0.0000 O   0  0  0  0  0  0  0  0  0  0  0  0
   -0.6669   -0.7030    0.0000 H   0  0  0  0  0  0  0  0  0  0  0  0
    0.4491   -0.5587    0.0000 H   0  0  0  0  0  0  0  0  0  0  0  0
    1.3614   -2.3282    0.0000 H   0  0  0  0  0  0  0  0  0  0  0  0
    2.5045   -2.0944    0.0000 H   0  0  0  0  0  0  0  0  0  0  0  0
    2.2707   -0.9514    0.0000 H   0  0  0  0  0  0  0  0  0  0  0  0
    1.8791   -0.8448    0.0000 H   0  0  0  0  0  0  0  0  0  0  0  0
   -0.0895   -2.2741    0.0000 H   0  0  0  0  0  0  0  0  0  0  0  0
    0.6954   -2.3898    0.0000 H   0  0  0  0  0  0  0  0  0  0  0  0
   -0.9731   -0.8895    0.0000 H   0  0  0  0  0  0  0  0  0  0  0  0
   -0.7551   -1.5631    0.0000 H   0  0  0  0  0  0  0  0  0  0  0  0
   -0.1903    0.6726    0.0000 H   0  0  0  0  0  0  0  0  0  0  0  0
   -1.8123    0.2273    0.0000 H   0  0  0  0  0  0  0  0  0  0  0  0
   -2.2743   -0.5808    0.0000 H   0  0  0  0  0  0  0  0  0  0  0  0
   -1.6894   -1.3049    0.0000 H   0  0  0  0  0  0  0  0  0  0  0  0
   -1.2843    1.6993    0.0000 H   0  0  0  0  0  0  0  0  0  0  0  0
   -2.2478    1.9165    0.0000 H   0  0  0  0  0  0  0  0  0  0  0  0
   -2.6820    1.5462    0.0000 H   0  0  0  0  0  0  0  0  0  0  0  0
   -3.2201    0.0746    0.0000 H   0  0  0  0  0  0  0  0  0  0  0  0
   -2.4831   -0.2238    0.0000 H   0  0  0  0  0  0  0  0  0  0  0  0
   -3.5635    1.6571    0.0000 H   0  0  0  0  0  0  0  0  0  0  0  0
   -4.1509    1.1008    0.0000 H   0  0  0  0  0  0  0  0  0  0  0  0
   -4.5889   -0.2472    0.0000 H   0  0  0  0  0  0  0  0  0  0  0  0
    0.3105    1.8924    0.0000 H   0  0  0  0  0  0  0  0  0  0  0  0
    3.2491    0.8338    0.0000 H   0  0  0  0  0  0  0  0  0  0  0  0
    3.4754    1.9783    0.0000 H   0  0  0  0  0  0  0  0  0  0  0  0
    2.3308    2.2047    0.0000 H   0  0  0  0  0  0  0  0  0  0  0  0
    2.8492   -0.4209    0.0000 H   0  0  0  0  0  0  0  0  0  0  0  0
    3.3746    0.1066    0.0000 H   0  0  0  0  0  0  0  0  0  0  0  0
    2.0055    0.4927    0.0000 H   0  0  0  0  0  0  0  0  0  0  0  0
    1.4815    0.2177    0.0000 H   0  0  0  0  0  0  0  0  0  0  0  0
  2  1  1  1  0  0  0
  1 26  1  0  0  0  0
  1 27  1  0  0  0  0
  1 28  1  0  0  0  0
  2  3  1  0  0  0  0
 20  2  1  0  0  0  0
  2 29  1  6  0  0  0
  3  4  1  0  0  0  0
  3 30  1  0  0  0  0
  3 31  1  0  0  0  0
  5  4  1  0  0  0  0
  4 32  1  0  0  0  0
  4 33  1  0  0  0  0
  5  6  1  0  0  0  0
 21  5  1  0  0  0  0
  5 34  1  6  0  0  0
  6 24  1  6  0  0  0
  6  7  1  1  0  0  0
  6  8  1  0  0  0  0
  7 35  1  0  0  0  0
  7 36  1  0  0  0  0
  7 37  1  0  0  0  0
  8  9  1  1  0  0  0
  8 13  1  0  0  0  0
  8 38  1  6  0  0  0
  9 10  1  0  0  0  0
  9 39  1  0  0  0  0
  9 40  1  0  0  0  0
 10 11  1  0  0  0  0
 10 41  1  0  0  0  0
 10 42  1  0  0  0  0
 11 12  1  0  0  0  0
 11 43  1  0  0  0  0
 11 44  1  0  0  0  0
 12 45  1  0  0  0  0
 14 13  1  0  0  0  0
 14 15  1  0  0  0  0
 21 14  1  0  0  0  0
 14 46  1  1  0  0  0
 16 15  1  0  0  0  0
 16 17  1  1  0  0  0
 16 18  1  0  0  0  0
 16 23  1  0  0  0  0
 17 47  1  0  0  0  0
 17 48  1  0  0  0  0
 17 49  1  0  0  0  0
 18 19  1  0  0  0  0
 18 50  1  0  0  0  0
 18 51  1  0  0  0  0
 20 19  1  0  0  0  0
 19 52  1  0  0  0  0
 19 53  1  0  0  0  0
 20 25  1  6  0  0  0
 21 20  1  0  0  0  0
 21 22  1  6  0  0  0
 22 23  1  0  0  0  0
M  END
