
  Mrv171c004271813302D          

 57 61  0  0  0  0            999 V2000
    2.7279   -1.0643    0.0000 C   0  0  0  0  0  0  0  0  0  0  0  0
    1.9947   -0.6862    0.0000 C   0  0  1  0  0  0  0  0  0  0  0  0
    1.2953   -1.1011    0.0000 C   0  0  0  0  0  0  0  0  0  0  0  0
    0.5555   -0.7316    0.0000 C   0  0  0  0  0  0  0  0  0  0  0  0
    0.5101    0.0996    0.0000 C   0  0  1  0  0  0  0  0  0  0  0  0
   -0.2969    0.2902    0.0000 C   0  0  1  0  0  0  0  0  0  0  0  0
   -0.8646   -0.3084    0.0000 C   0  0  0  0  0  0  0  0  0  0  0  0
   -1.6669   -0.1160    0.0000 C   0  0  0  0  0  0  0  0  0  0  0  0
   -2.2346   -0.7146    0.0000 C   0  0  0  0  0  0  0  0  0  0  0  0
   -3.0369   -0.5222    0.0000 C   0  0  0  0  0  0  0  0  0  0  0  0
   -3.6046   -1.1208    0.0000 C   0  0  0  0  0  0  0  0  0  0  0  0
   -4.4069   -0.9284    0.0000 C   0  0  0  0  0  0  0  0  0  0  0  0
   -4.6414   -0.1374    0.0000 C   0  0  0  0  0  0  0  0  0  0  0  0
   -4.0737    0.4612    0.0000 C   0  0  0  0  0  0  0  0  0  0  0  0
   -3.2714    0.2688    0.0000 C   0  0  0  0  0  0  0  0  0  0  0  0
   -0.5290    1.0828    0.0000 C   0  0  0  0  0  0  0  0  0  0  0  0
   -1.3348    1.2598    0.0000 O   0  0  0  0  0  0  0  0  0  0  0  0
    0.0087    1.6990    0.0000 O   0  0  0  0  0  0  0  0  0  0  0  0
    0.8056    1.4928    0.0000 C   0  0  2  0  0  0  0  0  0  0  0  0
    1.3925    2.1435    0.0000 O   0  0  0  0  0  0  0  0  0  0  0  0
    2.1441    1.7469    0.0000 C   0  0  1  0  0  0  0  0  0  0  0  0
    2.5825    2.4458    0.0000 C   0  0  0  0  0  0  0  0  0  0  0  0
    2.8328    1.2394    0.0000 C   0  0  0  0  0  0  0  0  0  0  0  0
    2.7567    0.4000    0.0000 C   0  0  0  0  0  0  0  0  0  0  0  0
    1.9262    0.1365    0.0000 C   0  0  2  0  0  0  0  0  0  0  0  0
    1.1641    0.6510    0.0000 C   0  0  1  0  0  0  0  0  0  0  0  0
    1.6615    1.1415    0.0000 O   0  0  0  0  0  0  0  0  0  0  0  0
   -0.0611   -0.5003    0.0000 H   0  0  0  0  0  0  0  0  0  0  0  0
    1.2144   -0.2806    0.0000 H   0  0  0  0  0  0  0  0  0  0  0  0
    2.3498   -1.7975    0.0000 H   0  0  0  0  0  0  0  0  0  0  0  0
    3.4612   -1.4424    0.0000 H   0  0  0  0  0  0  0  0  0  0  0  0
    3.1060   -0.3310    0.0000 H   0  0  0  0  0  0  0  0  0  0  0  0
    2.6807   -0.2279    0.0000 H   0  0  0  0  0  0  0  0  0  0  0  0
    0.9560   -1.8531    0.0000 H   0  0  0  0  0  0  0  0  0  0  0  0
    1.6881   -1.8266    0.0000 H   0  0  0  0  0  0  0  0  0  0  0  0
   -0.2640   -0.8264    0.0000 H   0  0  0  0  0  0  0  0  0  0  0  0
    0.1430   -1.4461    0.0000 H   0  0  0  0  0  0  0  0  0  0  0  0
    0.3186    0.9020    0.0000 H   0  0  0  0  0  0  0  0  0  0  0  0
   -1.2409   -1.0426    0.0000 H   0  0  0  0  0  0  0  0  0  0  0  0
   -1.0992    0.4826    0.0000 H   0  0  0  0  0  0  0  0  0  0  0  0
   -2.0352    0.6223    0.0000 H   0  0  0  0  0  0  0  0  0  0  0  0
   -2.4236    0.2128    0.0000 H   0  0  0  0  0  0  0  0  0  0  0  0
   -2.3800   -1.5266    0.0000 H   0  0  0  0  0  0  0  0  0  0  0  0
   -1.6701   -1.3161    0.0000 H   0  0  0  0  0  0  0  0  0  0  0  0
   -3.3701   -1.9117    0.0000 H   0  0  0  0  0  0  0  0  0  0  0  0
   -4.9746   -1.5270    0.0000 H   0  0  0  0  0  0  0  0  0  0  0  0
   -5.4437    0.0550    0.0000 H   0  0  0  0  0  0  0  0  0  0  0  0
   -4.3082    1.2521    0.0000 H   0  0  0  0  0  0  0  0  0  0  0  0
   -3.1476    1.0844    0.0000 H   0  0  0  0  0  0  0  0  0  0  0  0
    0.5682    2.2829    0.0000 H   0  0  0  0  0  0  0  0  0  0  0  0
    3.2813    2.0074    0.0000 H   0  0  0  0  0  0  0  0  0  0  0  0
    3.0209    3.1447    0.0000 H   0  0  0  0  0  0  0  0  0  0  0  0
    1.8836    2.8842    0.0000 H   0  0  0  0  0  0  0  0  0  0  0  0
    3.6186    0.9881    0.0000 H   0  0  0  0  0  0  0  0  0  0  0  0
    2.0804    0.9010    0.0000 H   0  0  0  0  0  0  0  0  0  0  0  0
    3.5547    0.1907    0.0000 H   0  0  0  0  0  0  0  0  0  0  0  0
    3.4320    0.8739    0.0000 H   0  0  0  0  0  0  0  0  0  0  0  0
  2  1  1  0  0  0  0
  1 30  1  0  0  0  0
  1 31  1  0  0  0  0
  1 32  1  0  0  0  0
  2  3  1  0  0  0  0
 25  2  1  0  0  0  0
  2 33  1  6  0  0  0
  3  4  1  0  0  0  0
  3 34  1  0  0  0  0
  3 35  1  0  0  0  0
  5  4  1  0  0  0  0
  4 36  1  0  0  0  0
  4 37  1  0  0  0  0
  5  6  1  0  0  0  0
 26  5  1  0  0  0  0
  5 38  1  6  0  0  0
  6 28  1  6  0  0  0
  6  7  1  0  0  0  0
  6 16  1  0  0  0  0
  7  8  1  0  0  0  0
  7 39  1  0  0  0  0
  7 40  1  0  0  0  0
  8  9  1  0  0  0  0
  8 41  1  0  0  0  0
  8 42  1  0  0  0  0
  9 10  1  0  0  0  0
  9 43  1  0  0  0  0
  9 44  1  0  0  0  0
 10 11  1  0  0  0  0
 10 15  2  0  0  0  0
 11 12  2  0  0  0  0
 11 45  1  0  0  0  0
 12 13  1  0  0  0  0
 12 46  1  0  0  0  0
 13 14  2  0  0  0  0
 13 47  1  0  0  0  0
 14 15  1  0  0  0  0
 14 48  1  0  0  0  0
 15 49  1  0  0  0  0
 16 17  2  0  0  0  0
 16 18  1  0  0  0  0
 19 18  1  0  0  0  0
 19 20  1  0  0  0  0
 26 19  1  0  0  0  0
 19 50  1  1  0  0  0
 21 20  1  0  0  0  0
 21 22  1  6  0  0  0
 21 23  1  0  0  0  0
 21 27  1  0  0  0  0
 22 51  1  0  0  0  0
 22 52  1  0  0  0  0
 22 53  1  0  0  0  0
 23 24  1  0  0  0  0
 23 54  1  0  0  0  0
 23 55  1  0  0  0  0
 25 24  1  0  0  0  0
 24 56  1  0  0  0  0
 24 57  1  0  0  0  0
 25 29  1  6  0  0  0
 26 25  1  0  0  0  0
 26 27  1  6  0  0  0
M  END
