
  Mrv171c004271813302D          

 42 45  0  0  0  0            999 V2000
   -2.2995   -0.6277    0.0000 C   0  0  0  0  0  0  0  0  0  0  0  0
   -1.7392   -0.0221    0.0000 C   0  0  0  0  0  0  0  0  0  0  0  0
   -2.0277    0.7680    0.0000 C   0  0  1  0  0  0  0  0  0  0  0  0
   -2.8102    1.0295    0.0000 O   0  0  0  0  0  0  0  0  0  0  0  0
   -1.3226    1.2257    0.0000 O   0  0  0  0  0  0  0  0  0  0  0  0
   -0.5078    0.9550    0.0000 C   0  0  2  0  0  0  0  0  0  0  0  0
    0.4249    0.7343    0.0000 O   0  0  0  0  0  0  0  0  0  0  0  0
    1.2569    0.9473    0.0000 C   0  0  1  0  0  0  0  0  0  0  0  0
    1.9424    1.4064    0.0000 C   0  0  0  0  0  0  0  0  0  0  0  0
    1.7427    0.2495    0.0000 C   0  0  0  0  0  0  0  0  0  0  0  0
    1.2539   -0.4395    0.0000 C   0  0  0  0  0  0  0  0  0  0  0  0
    0.3964   -0.4507    0.0000 C   0  0  1  0  0  0  0  0  0  0  0  0
    0.2800   -1.2980    0.0000 C   0  0  1  0  0  0  0  0  0  0  0  0
    0.9684   -1.7526    0.0000 C   0  0  0  0  0  0  0  0  0  0  0  0
   -0.4392   -1.7292    0.0000 C   0  0  0  0  0  0  0  0  0  0  0  0
   -1.0027   -1.1097    0.0000 C   0  0  0  0  0  0  0  0  0  0  0  0
   -0.9066   -0.2548    0.0000 C   0  0  2  0  0  0  0  0  0  0  0  0
   -0.1642    0.2447    0.0000 C   0  0  1  0  0  0  0  0  0  0  0  0
    0.0744    1.1955    0.0000 O   0  0  0  0  0  0  0  0  0  0  0  0
    0.8005    1.6559    0.0000 O   0  0  0  0  0  0  0  0  0  0  0  0
    0.7476    0.2958    0.0000 H   0  0  0  0  0  0  0  0  0  0  0  0
   -3.1041   -0.4452    0.0000 H   0  0  0  0  0  0  0  0  0  0  0  0
   -2.0552   -1.4157    0.0000 H   0  0  0  0  0  0  0  0  0  0  0  0
   -2.6030    0.1766    0.0000 H   0  0  0  0  0  0  0  0  0  0  0  0
   -3.3685    1.6369    0.0000 H   0  0  0  0  0  0  0  0  0  0  0  0
   -0.5371    1.7795    0.0000 H   0  0  0  0  0  0  0  0  0  0  0  0
    2.4015    0.7209    0.0000 H   0  0  0  0  0  0  0  0  0  0  0  0
    2.6278    1.8655    0.0000 H   0  0  0  0  0  0  0  0  0  0  0  0
    1.4833    2.0918    0.0000 H   0  0  0  0  0  0  0  0  0  0  0  0
    2.0017   -0.5338    0.0000 H   0  0  0  0  0  0  0  0  0  0  0  0
    2.5271   -0.0062    0.0000 H   0  0  0  0  0  0  0  0  0  0  0  0
    0.8180   -1.1400    0.0000 H   0  0  0  0  0  0  0  0  0  0  0  0
    1.6085   -1.1844    0.0000 H   0  0  0  0  0  0  0  0  0  0  0  0
   -0.4084   -0.8434    0.0000 H   0  0  0  0  0  0  0  0  0  0  0  0
    0.2563   -2.1691    0.0000 H   0  0  0  0  0  0  0  0  0  0  0  0
    1.0271   -2.5755    0.0000 H   0  0  0  0  0  0  0  0  0  0  0  0
    1.7325   -2.0639    0.0000 H   0  0  0  0  0  0  0  0  0  0  0  0
   -1.1657   -2.1200    0.0000 H   0  0  0  0  0  0  0  0  0  0  0  0
   -0.6983   -2.5124    0.0000 H   0  0  0  0  0  0  0  0  0  0  0  0
   -1.8207   -1.0023    0.0000 H   0  0  0  0  0  0  0  0  0  0  0  0
   -1.6026   -1.6760    0.0000 H   0  0  0  0  0  0  0  0  0  0  0  0
   -1.0379    0.5597    0.0000 H   0  0  0  0  0  0  0  0  0  0  0  0
  1  2  2  0  0  0  0
  1 22  1  0  0  0  0
  1 23  1  0  0  0  0
  3  2  1  0  0  0  0
 17  2  1  0  0  0  0
  3  4  1  1  0  0  0
  3  5  1  0  0  0  0
  3 24  1  6  0  0  0
  4 25  1  0  0  0  0
  6  5  1  0  0  0  0
  6  7  1  0  0  0  0
 18  6  1  0  0  0  0
  6 26  1  1  0  0  0
  8  7  1  0  0  0  0
  8  9  1  1  0  0  0
  8 10  1  0  0  0  0
  8 20  1  0  0  0  0
  9 27  1  0  0  0  0
  9 28  1  0  0  0  0
  9 29  1  0  0  0  0
 10 11  1  0  0  0  0
 10 30  1  0  0  0  0
 10 31  1  0  0  0  0
 12 11  1  0  0  0  0
 11 32  1  0  0  0  0
 11 33  1  0  0  0  0
 12 21  1  6  0  0  0
 12 13  1  0  0  0  0
 18 12  1  0  0  0  0
 13 14  1  0  0  0  0
 13 15  1  1  0  0  0
 13 34  1  6  0  0  0
 14 35  1  0  0  0  0
 14 36  1  0  0  0  0
 14 37  1  0  0  0  0
 15 16  1  0  0  0  0
 15 38  1  0  0  0  0
 15 39  1  0  0  0  0
 17 16  1  0  0  0  0
 16 40  1  0  0  0  0
 16 41  1  0  0  0  0
 18 17  1  0  0  0  0
 17 42  1  6  0  0  0
 18 19  1  6  0  0  0
 19 20  1  0  0  0  0
M  END
