
  Mrv171c004271813302D          

 48 51  0  0  0  0            999 V2000
    3.3596    0.9671    0.0000 C   0  0  0  0  0  0  0  0  0  0  0  0
    2.6080    1.3073    0.0000 C   0  0  0  0  0  0  0  0  0  0  0  0
    1.9376    0.8265    0.0000 C   0  0  0  0  0  0  0  0  0  0  0  0
    1.1860    1.1667    0.0000 C   0  0  0  0  0  0  0  0  0  0  0  0
    0.5156    0.6859    0.0000 C   0  0  1  0  0  0  0  0  0  0  0  0
    1.0194   -0.0139    0.0000 C   0  0  0  0  0  0  0  0  0  0  0  0
    0.5353   -0.7177    0.0000 C   0  0  0  0  0  0  0  0  0  0  0  0
   -0.3230   -0.7744    0.0000 C   0  0  1  0  0  0  0  0  0  0  0  0
   -0.4467   -1.6236    0.0000 C   0  0  1  0  0  0  0  0  0  0  0  0
    0.2317   -2.0931    0.0000 C   0  0  0  0  0  0  0  0  0  0  0  0
   -1.1804   -2.0289    0.0000 C   0  0  0  0  0  0  0  0  0  0  0  0
   -1.7308   -1.4119    0.0000 C   0  0  0  0  0  0  0  0  0  0  0  0
   -1.6428   -0.5708    0.0000 C   0  0  1  0  0  0  0  0  0  0  0  0
   -2.4587   -0.2962    0.0000 C   0  0  0  0  0  0  0  0  0  0  0  0
   -2.7705    0.4942    0.0000 C   0  0  0  0  0  0  0  0  0  0  0  0
   -3.5554    0.7483    0.0000 O   0  0  0  0  0  0  0  0  0  0  0  0
   -2.0608    0.9477    0.0000 O   0  0  0  0  0  0  0  0  0  0  0  0
   -1.2325    0.6508    0.0000 C   0  0  2  0  0  0  0  0  0  0  0  0
   -0.2973    0.4008    0.0000 O   0  0  0  0  0  0  0  0  0  0  0  0
   -0.9028   -0.0797    0.0000 C   0  0  1  0  0  0  0  0  0  0  0  0
   -0.6541    0.8512    0.0000 O   0  0  0  0  0  0  0  0  0  0  0  0
    0.0158    1.3856    0.0000 O   0  0  0  0  0  0  0  0  0  0  0  0
    0.0018   -0.0161    0.0000 H   0  0  0  0  0  0  0  0  0  0  0  0
    3.0194    0.2155    0.0000 H   0  0  0  0  0  0  0  0  0  0  0  0
    4.1112    0.6268    0.0000 H   0  0  0  0  0  0  0  0  0  0  0  0
    3.6998    1.7186    0.0000 H   0  0  0  0  0  0  0  0  0  0  0  0
    2.9040    2.0774    0.0000 H   0  0  0  0  0  0  0  0  0  0  0  0
    2.1670    2.0045    0.0000 H   0  0  0  0  0  0  0  0  0  0  0  0
    1.6417    0.0564    0.0000 H   0  0  0  0  0  0  0  0  0  0  0  0
    2.3786    0.1292    0.0000 H   0  0  0  0  0  0  0  0  0  0  0  0
    1.4820    1.9368    0.0000 H   0  0  0  0  0  0  0  0  0  0  0  0
    0.7450    1.8639    0.0000 H   0  0  0  0  0  0  0  0  0  0  0  0
    1.3537    0.7404    0.0000 H   0  0  0  0  0  0  0  0  0  0  0  0
    1.4439   -0.7213    0.0000 H   0  0  0  0  0  0  0  0  0  0  0  0
    0.1537   -1.4491    0.0000 H   0  0  0  0  0  0  0  0  0  0  0  0
    0.9616   -1.4241    0.0000 H   0  0  0  0  0  0  0  0  0  0  0  0
   -1.1251   -1.1541    0.0000 H   0  0  0  0  0  0  0  0  0  0  0  0
   -0.3695   -2.6579    0.0000 H   0  0  0  0  0  0  0  0  0  0  0  0
    0.6580   -2.7994    0.0000 H   0  0  0  0  0  0  0  0  0  0  0  0
    1.0117   -1.8243    0.0000 H   0  0  0  0  0  0  0  0  0  0  0  0
   -1.6911   -2.6768    0.0000 H   0  0  0  0  0  0  0  0  0  0  0  0
   -0.9131   -2.8094    0.0000 H   0  0  0  0  0  0  0  0  0  0  0  0
   -2.5489   -1.3053    0.0000 H   0  0  0  0  0  0  0  0  0  0  0  0
   -2.3324   -1.9764    0.0000 H   0  0  0  0  0  0  0  0  0  0  0  0
   -1.7503    0.2472    0.0000 H   0  0  0  0  0  0  0  0  0  0  0  0
   -3.2293   -0.5909    0.0000 H   0  0  0  0  0  0  0  0  0  0  0  0
   -2.7136   -1.0809    0.0000 H   0  0  0  0  0  0  0  0  0  0  0  0
   -1.2281    1.4758    0.0000 H   0  0  0  0  0  0  0  0  0  0  0  0
  1  2  1  0  0  0  0
  1 24  1  0  0  0  0
  1 25  1  0  0  0  0
  1 26  1  0  0  0  0
  2  3  1  0  0  0  0
  2 27  1  0  0  0  0
  2 28  1  0  0  0  0
  3  4  1  0  0  0  0
  3 29  1  0  0  0  0
  3 30  1  0  0  0  0
  5  4  1  1  0  0  0
  4 31  1  0  0  0  0
  4 32  1  0  0  0  0
  5  6  1  0  0  0  0
  5 19  1  0  0  0  0
  5 22  1  0  0  0  0
  6  7  1  0  0  0  0
  6 33  1  0  0  0  0
  6 34  1  0  0  0  0
  8  7  1  0  0  0  0
  7 35  1  0  0  0  0
  7 36  1  0  0  0  0
  8 23  1  6  0  0  0
  8  9  1  0  0  0  0
 20  8  1  0  0  0  0
  9 10  1  0  0  0  0
  9 11  1  1  0  0  0
  9 37  1  6  0  0  0
 10 38  1  0  0  0  0
 10 39  1  0  0  0  0
 10 40  1  0  0  0  0
 11 12  1  0  0  0  0
 11 41  1  0  0  0  0
 11 42  1  0  0  0  0
 13 12  1  0  0  0  0
 12 43  1  0  0  0  0
 12 44  1  0  0  0  0
 13 14  1  0  0  0  0
 20 13  1  0  0  0  0
 13 45  1  6  0  0  0
 14 15  1  0  0  0  0
 14 46  1  0  0  0  0
 14 47  1  0  0  0  0
 15 16  2  0  0  0  0
 15 17  1  0  0  0  0
 18 17  1  0  0  0  0
 18 19  1  0  0  0  0
 20 18  1  0  0  0  0
 18 48  1  1  0  0  0
 20 21  1  6  0  0  0
 21 22  1  0  0  0  0
M  END
