
  Mrv171c004271813302D          

 43 46  0  0  0  0            999 V2000
    1.4636   -1.3427    0.0000 C   0  0  0  0  0  0  0  0  0  0  0  0
    0.7303   -0.9646    0.0000 C   0  0  1  0  0  0  0  0  0  0  0  0
    0.0310   -1.3795    0.0000 C   0  0  0  0  0  0  0  0  0  0  0  0
   -0.7088   -1.0101    0.0000 C   0  0  0  0  0  0  0  0  0  0  0  0
   -0.7543   -0.1789    0.0000 C   0  0  1  0  0  0  0  0  0  0  0  0
   -1.5612    0.0118    0.0000 C   0  0  1  0  0  0  0  0  0  0  0  0
   -2.1290   -0.5868    0.0000 C   0  0  0  0  0  0  0  0  0  0  0  0
   -1.7933    0.8043    0.0000 C   0  0  1  0  0  0  0  0  0  0  0  0
   -2.5991    0.9814    0.0000 O   0  0  0  0  0  0  0  0  0  0  0  0
   -1.2556    1.4206    0.0000 O   0  0  0  0  0  0  0  0  0  0  0  0
   -0.4587    1.2143    0.0000 C   0  0  2  0  0  0  0  0  0  0  0  0
    0.1282    1.8650    0.0000 O   0  0  0  0  0  0  0  0  0  0  0  0
    0.8797    1.4685    0.0000 C   0  0  1  0  0  0  0  0  0  0  0  0
    1.3181    2.1674    0.0000 C   0  0  0  0  0  0  0  0  0  0  0  0
    1.5685    0.9610    0.0000 C   0  0  0  0  0  0  0  0  0  0  0  0
    1.4923    0.1216    0.0000 C   0  0  0  0  0  0  0  0  0  0  0  0
    0.6619   -0.1420    0.0000 C   0  0  2  0  0  0  0  0  0  0  0  0
   -0.1003    0.3726    0.0000 C   0  0  1  0  0  0  0  0  0  0  0  0
    0.3972    0.8631    0.0000 O   0  0  0  0  0  0  0  0  0  0  0  0
   -1.3254   -0.7788    0.0000 H   0  0  0  0  0  0  0  0  0  0  0  0
   -2.0517    1.5878    0.0000 H   0  0  0  0  0  0  0  0  0  0  0  0
   -0.0500   -0.5590    0.0000 H   0  0  0  0  0  0  0  0  0  0  0  0
    1.0855   -2.0759    0.0000 H   0  0  0  0  0  0  0  0  0  0  0  0
    2.1968   -1.7208    0.0000 H   0  0  0  0  0  0  0  0  0  0  0  0
    1.8417   -0.6095    0.0000 H   0  0  0  0  0  0  0  0  0  0  0  0
    1.4164   -0.5064    0.0000 H   0  0  0  0  0  0  0  0  0  0  0  0
   -0.3083   -2.1315    0.0000 H   0  0  0  0  0  0  0  0  0  0  0  0
    0.4238   -2.1050    0.0000 H   0  0  0  0  0  0  0  0  0  0  0  0
   -1.5284   -1.1048    0.0000 H   0  0  0  0  0  0  0  0  0  0  0  0
   -1.1213   -1.7245    0.0000 H   0  0  0  0  0  0  0  0  0  0  0  0
   -0.9458    0.6236    0.0000 H   0  0  0  0  0  0  0  0  0  0  0  0
   -2.4736    0.1628    0.0000 H   0  0  0  0  0  0  0  0  0  0  0  0
   -2.9529   -0.6281    0.0000 H   0  0  0  0  0  0  0  0  0  0  0  0
   -2.3969   -1.3671    0.0000 H   0  0  0  0  0  0  0  0  0  0  0  0
   -3.3894    1.2181    0.0000 H   0  0  0  0  0  0  0  0  0  0  0  0
   -0.6961    2.0045    0.0000 H   0  0  0  0  0  0  0  0  0  0  0  0
    2.0170    1.7290    0.0000 H   0  0  0  0  0  0  0  0  0  0  0  0
    1.7565    2.8662    0.0000 H   0  0  0  0  0  0  0  0  0  0  0  0
    0.6193    2.6058    0.0000 H   0  0  0  0  0  0  0  0  0  0  0  0
    2.3543    0.7097    0.0000 H   0  0  0  0  0  0  0  0  0  0  0  0
    0.8161    0.6226    0.0000 H   0  0  0  0  0  0  0  0  0  0  0  0
    2.2903   -0.0878    0.0000 H   0  0  0  0  0  0  0  0  0  0  0  0
    2.1676    0.5955    0.0000 H   0  0  0  0  0  0  0  0  0  0  0  0
  2  1  1  0  0  0  0
  1 23  1  0  0  0  0
  1 24  1  0  0  0  0
  1 25  1  0  0  0  0
  2  3  1  0  0  0  0
 17  2  1  0  0  0  0
  2 26  1  6  0  0  0
  3  4  1  0  0  0  0
  3 27  1  0  0  0  0
  3 28  1  0  0  0  0
  5  4  1  0  0  0  0
  4 29  1  0  0  0  0
  4 30  1  0  0  0  0
  5  6  1  0  0  0  0
 18  5  1  0  0  0  0
  5 31  1  6  0  0  0
  6 20  1  6  0  0  0
  6  7  1  0  0  0  0
  6  8  1  0  0  0  0
  7 32  1  0  0  0  0
  7 33  1  0  0  0  0
  7 34  1  0  0  0  0
  8 21  1  6  0  0  0
  8  9  1  0  0  0  0
  8 10  1  0  0  0  0
  9 35  1  0  0  0  0
 11 10  1  0  0  0  0
 11 12  1  0  0  0  0
 18 11  1  0  0  0  0
 11 36  1  1  0  0  0
 13 12  1  0  0  0  0
 13 14  1  6  0  0  0
 13 15  1  0  0  0  0
 13 19  1  0  0  0  0
 14 37  1  0  0  0  0
 14 38  1  0  0  0  0
 14 39  1  0  0  0  0
 15 16  1  0  0  0  0
 15 40  1  0  0  0  0
 15 41  1  0  0  0  0
 17 16  1  0  0  0  0
 16 42  1  0  0  0  0
 16 43  1  0  0  0  0
 17 22  1  6  0  0  0
 18 17  1  0  0  0  0
 18 19  1  6  0  0  0
M  END
