
  Mrv171c004271813302D          

 45 48  0  0  0  0            999 V2000
    2.7994    1.3571    0.0000 C   0  0  0  0  0  0  0  0  0  0  0  0
    2.1289    0.8763    0.0000 C   0  0  0  0  0  0  0  0  0  0  0  0
    1.3773    1.2165    0.0000 C   0  0  0  0  0  0  0  0  0  0  0  0
    0.7069    0.7357    0.0000 C   0  0  1  0  0  0  0  0  0  0  0  0
    1.2108    0.0359    0.0000 C   0  0  0  0  0  0  0  0  0  0  0  0
    0.7266   -0.6679    0.0000 C   0  0  0  0  0  0  0  0  0  0  0  0
   -0.1317   -0.7246    0.0000 C   0  0  1  0  0  0  0  0  0  0  0  0
   -0.2554   -1.5738    0.0000 C   0  0  1  0  0  0  0  0  0  0  0  0
    0.4230   -2.0433    0.0000 C   0  0  0  0  0  0  0  0  0  0  0  0
   -0.9891   -1.9791    0.0000 C   0  0  0  0  0  0  0  0  0  0  0  0
   -1.5395   -1.3621    0.0000 C   0  0  0  0  0  0  0  0  0  0  0  0
   -1.4515   -0.5210    0.0000 C   0  0  1  0  0  0  0  0  0  0  0  0
   -2.2674   -0.2465    0.0000 C   0  0  0  0  0  0  0  0  0  0  0  0
   -2.5792    0.5440    0.0000 C   0  0  0  0  0  0  0  0  0  0  0  0
   -3.3640    0.7981    0.0000 O   0  0  0  0  0  0  0  0  0  0  0  0
   -1.8695    0.9975    0.0000 O   0  0  0  0  0  0  0  0  0  0  0  0
   -1.0412    0.7006    0.0000 C   0  0  2  0  0  0  0  0  0  0  0  0
   -0.1059    0.4506    0.0000 O   0  0  0  0  0  0  0  0  0  0  0  0
   -0.7115   -0.0299    0.0000 C   0  0  1  0  0  0  0  0  0  0  0  0
   -0.4628    0.9010    0.0000 O   0  0  0  0  0  0  0  0  0  0  0  0
    0.2071    1.4354    0.0000 O   0  0  0  0  0  0  0  0  0  0  0  0
    0.1931    0.0337    0.0000 H   0  0  0  0  0  0  0  0  0  0  0  0
    3.2801    0.6866    0.0000 H   0  0  0  0  0  0  0  0  0  0  0  0
    3.4698    1.8378    0.0000 H   0  0  0  0  0  0  0  0  0  0  0  0
    2.3186    2.0275    0.0000 H   0  0  0  0  0  0  0  0  0  0  0  0
    1.8330    0.1062    0.0000 H   0  0  0  0  0  0  0  0  0  0  0  0
    2.5699    0.1790    0.0000 H   0  0  0  0  0  0  0  0  0  0  0  0
    1.6733    1.9866    0.0000 H   0  0  0  0  0  0  0  0  0  0  0  0
    0.9364    1.9137    0.0000 H   0  0  0  0  0  0  0  0  0  0  0  0
    1.5450    0.7902    0.0000 H   0  0  0  0  0  0  0  0  0  0  0  0
    1.6352   -0.6715    0.0000 H   0  0  0  0  0  0  0  0  0  0  0  0
    0.3450   -1.3993    0.0000 H   0  0  0  0  0  0  0  0  0  0  0  0
    1.1529   -1.3743    0.0000 H   0  0  0  0  0  0  0  0  0  0  0  0
   -0.9337   -1.1043    0.0000 H   0  0  0  0  0  0  0  0  0  0  0  0
   -0.1782   -2.6082    0.0000 H   0  0  0  0  0  0  0  0  0  0  0  0
    0.8493   -2.7496    0.0000 H   0  0  0  0  0  0  0  0  0  0  0  0
    1.2030   -1.7745    0.0000 H   0  0  0  0  0  0  0  0  0  0  0  0
   -1.4998   -2.6270    0.0000 H   0  0  0  0  0  0  0  0  0  0  0  0
   -0.7218   -2.7596    0.0000 H   0  0  0  0  0  0  0  0  0  0  0  0
   -2.3576   -1.2555    0.0000 H   0  0  0  0  0  0  0  0  0  0  0  0
   -2.1411   -1.9266    0.0000 H   0  0  0  0  0  0  0  0  0  0  0  0
   -1.5590    0.2970    0.0000 H   0  0  0  0  0  0  0  0  0  0  0  0
   -3.0380   -0.5411    0.0000 H   0  0  0  0  0  0  0  0  0  0  0  0
   -2.5222   -1.0311    0.0000 H   0  0  0  0  0  0  0  0  0  0  0  0
   -1.0368    1.5256    0.0000 H   0  0  0  0  0  0  0  0  0  0  0  0
  1  2  1  0  0  0  0
  1 23  1  0  0  0  0
  1 24  1  0  0  0  0
  1 25  1  0  0  0  0
  2  3  1  0  0  0  0
  2 26  1  0  0  0  0
  2 27  1  0  0  0  0
  4  3  1  1  0  0  0
  3 28  1  0  0  0  0
  3 29  1  0  0  0  0
  4  5  1  0  0  0  0
  4 18  1  0  0  0  0
  4 21  1  0  0  0  0
  5  6  1  0  0  0  0
  5 30  1  0  0  0  0
  5 31  1  0  0  0  0
  7  6  1  0  0  0  0
  6 32  1  0  0  0  0
  6 33  1  0  0  0  0
  7 22  1  6  0  0  0
  7  8  1  0  0  0  0
 19  7  1  0  0  0  0
  8  9  1  0  0  0  0
  8 10  1  1  0  0  0
  8 34  1  6  0  0  0
  9 35  1  0  0  0  0
  9 36  1  0  0  0  0
  9 37  1  0  0  0  0
 10 11  1  0  0  0  0
 10 38  1  0  0  0  0
 10 39  1  0  0  0  0
 12 11  1  0  0  0  0
 11 40  1  0  0  0  0
 11 41  1  0  0  0  0
 12 13  1  0  0  0  0
 19 12  1  0  0  0  0
 12 42  1  6  0  0  0
 13 14  1  0  0  0  0
 13 43  1  0  0  0  0
 13 44  1  0  0  0  0
 14 15  2  0  0  0  0
 14 16  1  0  0  0  0
 17 16  1  0  0  0  0
 17 18  1  0  0  0  0
 19 17  1  0  0  0  0
 17 45  1  1  0  0  0
 19 20  1  6  0  0  0
 20 21  1  0  0  0  0
M  END
