
  Mrv171c004271813302D          

 55 59  0  0  0  0            999 V2000
    1.6164   -1.8069    0.0000 C   0  0  0  0  0  0  0  0  0  0  0  0
    0.9279   -1.3523    0.0000 C   0  0  1  0  0  0  0  0  0  0  0  0
    0.2087   -1.7835    0.0000 C   0  0  0  0  0  0  0  0  0  0  0  0
   -0.3548   -1.1640    0.0000 C   0  0  0  0  0  0  0  0  0  0  0  0
   -0.2587   -0.3091    0.0000 C   0  0  1  0  0  0  0  0  0  0  0  0
   -1.0913   -0.0764    0.0000 C   0  0  2  0  0  0  0  0  0  0  0  0
   -1.1448   -0.8997    0.0000 C   0  0  0  0  0  0  0  0  0  0  0  0
   -1.9079   -0.1936    0.0000 Br  0  0  0  0  0  0  0  0  0  0  0  0
   -1.3798    0.7137    0.0000 C   0  0  1  0  0  0  0  0  0  0  0  0
   -2.1623    0.9752    0.0000 C   0  0  0  0  0  0  0  0  0  0  0  0
   -2.7800    0.4283    0.0000 C   0  0  0  0  0  0  0  0  0  0  0  0
   -3.5624    0.6897    0.0000 C   0  0  0  0  0  0  0  0  0  0  0  0
   -3.7272    1.4981    0.0000 C   0  0  0  0  0  0  0  0  0  0  0  0
   -4.5097    1.7596    0.0000 N   0  0  0  0  0  0  0  0  0  0  0  0
   -3.1096    2.0450    0.0000 C   0  0  0  0  0  0  0  0  0  0  0  0
   -2.3271    1.7836    0.0000 C   0  0  0  0  0  0  0  0  0  0  0  0
   -1.7094    2.3305    0.0000 F   0  0  0  0  0  0  0  0  0  0  0  0
   -0.6747    1.1714    0.0000 O   0  0  0  0  0  0  0  0  0  0  0  0
    0.1401    0.9007    0.0000 C   0  0  2  0  0  0  0  0  0  0  0  0
    1.0728    0.6800    0.0000 O   0  0  0  0  0  0  0  0  0  0  0  0
    1.9049    0.8930    0.0000 C   0  0  1  0  0  0  0  0  0  0  0  0
    2.5903    1.3521    0.0000 C   0  0  0  0  0  0  0  0  0  0  0  0
    2.3906    0.1952    0.0000 C   0  0  0  0  0  0  0  0  0  0  0  0
    1.9018   -0.4938    0.0000 C   0  0  0  0  0  0  0  0  0  0  0  0
    1.0444   -0.5050    0.0000 C   0  0  2  0  0  0  0  0  0  0  0  0
    0.4837    0.1904    0.0000 C   0  0  1  0  0  0  0  0  0  0  0  0
    0.7223    1.1412    0.0000 O   0  0  0  0  0  0  0  0  0  0  0  0
    1.4485    1.6016    0.0000 O   0  0  0  0  0  0  0  0  0  0  0  0
    0.2292   -0.3779    0.0000 H   0  0  0  0  0  0  0  0  0  0  0  0
    1.1617   -2.4954    0.0000 H   0  0  0  0  0  0  0  0  0  0  0  0
    2.3048   -2.2616    0.0000 H   0  0  0  0  0  0  0  0  0  0  0  0
    2.0710   -1.1185    0.0000 H   0  0  0  0  0  0  0  0  0  0  0  0
    1.6794   -1.0119    0.0000 H   0  0  0  0  0  0  0  0  0  0  0  0
   -0.2892   -2.4413    0.0000 H   0  0  0  0  0  0  0  0  0  0  0  0
    0.4957   -2.5570    0.0000 H   0  0  0  0  0  0  0  0  0  0  0  0
   -0.8054   -1.8551    0.0000 H   0  0  0  0  0  0  0  0  0  0  0  0
    0.4301   -0.9099    0.0000 H   0  0  0  0  0  0  0  0  0  0  0  0
   -0.3900    0.5054    0.0000 H   0  0  0  0  0  0  0  0  0  0  0  0
   -1.8599   -0.4882    0.0000 H   0  0  0  0  0  0  0  0  0  0  0  0
   -1.8297   -1.3597    0.0000 H   0  0  0  0  0  0  0  0  0  0  0  0
   -1.0343   -1.7172    0.0000 H   0  0  0  0  0  0  0  0  0  0  0  0
   -1.4840    1.5321    0.0000 H   0  0  0  0  0  0  0  0  0  0  0  0
   -2.6152   -0.3801    0.0000 H   0  0  0  0  0  0  0  0  0  0  0  0
   -4.1801    0.1428    0.0000 H   0  0  0  0  0  0  0  0  0  0  0  0
   -4.6745    2.5680    0.0000 H   0  0  0  0  0  0  0  0  0  0  0  0
   -5.1274    1.2127    0.0000 H   0  0  0  0  0  0  0  0  0  0  0  0
   -3.2744    2.8534    0.0000 H   0  0  0  0  0  0  0  0  0  0  0  0
    0.1108    1.7252    0.0000 H   0  0  0  0  0  0  0  0  0  0  0  0
    3.0494    0.6666    0.0000 H   0  0  0  0  0  0  0  0  0  0  0  0
    3.2757    1.8112    0.0000 H   0  0  0  0  0  0  0  0  0  0  0  0
    2.1312    2.0375    0.0000 H   0  0  0  0  0  0  0  0  0  0  0  0
    2.6496   -0.5881    0.0000 H   0  0  0  0  0  0  0  0  0  0  0  0
    3.1750   -0.0605    0.0000 H   0  0  0  0  0  0  0  0  0  0  0  0
    1.8058    0.3256    0.0000 H   0  0  0  0  0  0  0  0  0  0  0  0
    1.2819    0.0505    0.0000 H   0  0  0  0  0  0  0  0  0  0  0  0
  2  1  1  1  0  0  0
  1 30  1  0  0  0  0
  1 31  1  0  0  0  0
  1 32  1  0  0  0  0
  2  3  1  0  0  0  0
 25  2  1  0  0  0  0
  2 33  1  6  0  0  0
  3  4  1  0  0  0  0
  3 34  1  0  0  0  0
  3 35  1  0  0  0  0
  5  4  1  0  0  0  0
  4 36  1  0  0  0  0
  4 37  1  0  0  0  0
  5  6  1  0  0  0  0
 26  5  1  0  0  0  0
  5 38  1  6  0  0  0
  6  7  1  1  0  0  0
  6  8  1  6  0  0  0
  6  9  1  0  0  0  0
  7 39  1  0  0  0  0
  7 40  1  0  0  0  0
  7 41  1  0  0  0  0
  9 10  1  1  0  0  0
  9 18  1  0  0  0  0
  9 42  1  6  0  0  0
 10 11  1  0  0  0  0
 10 16  2  0  0  0  0
 11 12  2  0  0  0  0
 11 43  1  0  0  0  0
 12 13  1  0  0  0  0
 12 44  1  0  0  0  0
 13 14  1  0  0  0  0
 13 15  2  0  0  0  0
 14 45  1  0  0  0  0
 14 46  1  0  0  0  0
 15 16  1  0  0  0  0
 15 47  1  0  0  0  0
 16 17  1  0  0  0  0
 19 18  1  0  0  0  0
 19 20  1  0  0  0  0
 26 19  1  0  0  0  0
 19 48  1  1  0  0  0
 21 20  1  0  0  0  0
 21 22  1  1  0  0  0
 21 23  1  0  0  0  0
 21 28  1  0  0  0  0
 22 49  1  0  0  0  0
 22 50  1  0  0  0  0
 22 51  1  0  0  0  0
 23 24  1  0  0  0  0
 23 52  1  0  0  0  0
 23 53  1  0  0  0  0
 25 24  1  0  0  0  0
 24 54  1  0  0  0  0
 24 55  1  0  0  0  0
 25 29  1  6  0  0  0
 26 25  1  0  0  0  0
 26 27  1  6  0  0  0
 27 28  1  0  0  0  0
M  END
