
  Mrv171c004271813302D          

 58 62  0  0  0  0            999 V2000
    2.2842   -1.2624    0.0000 C   0  0  0  0  0  0  0  0  0  0  0  0
    1.5958   -0.8077    0.0000 C   0  0  1  0  0  0  0  0  0  0  0  0
    0.8766   -1.2389    0.0000 C   0  0  0  0  0  0  0  0  0  0  0  0
    0.3131   -0.6194    0.0000 C   0  0  0  0  0  0  0  0  0  0  0  0
    0.4092    0.2355    0.0000 C   0  0  1  0  0  0  0  0  0  0  0  0
   -0.4234    0.4682    0.0000 C   0  0  1  0  0  0  0  0  0  0  0  0
   -0.9837   -0.1374    0.0000 C   0  0  0  0  0  0  0  0  0  0  0  0
   -1.7883    0.0450    0.0000 C   0  0  0  0  0  0  0  0  0  0  0  0
   -2.3486   -0.5605    0.0000 C   0  0  0  0  0  0  0  0  0  0  0  0
   -3.1531   -0.3781    0.0000 C   0  0  0  0  0  0  0  0  0  0  0  0
   -3.7134   -0.9837    0.0000 C   0  0  0  0  0  0  0  0  0  0  0  0
   -4.5180   -0.8012    0.0000 C   0  0  0  0  0  0  0  0  0  0  0  0
   -4.7623   -0.0132    0.0000 C   0  0  0  0  0  0  0  0  0  0  0  0
   -4.2020    0.5923    0.0000 C   0  0  0  0  0  0  0  0  0  0  0  0
   -3.3974    0.4099    0.0000 C   0  0  0  0  0  0  0  0  0  0  0  0
   -0.7120    1.2583    0.0000 C   0  0  0  0  0  0  0  0  0  0  0  0
   -1.4944    1.5198    0.0000 O   0  0  0  0  0  0  0  0  0  0  0  0
   -0.0068    1.7159    0.0000 O   0  0  0  0  0  0  0  0  0  0  0  0
    0.8080    1.4453    0.0000 C   0  0  2  0  0  0  0  0  0  0  0  0
    1.7407    1.2246    0.0000 O   0  0  0  0  0  0  0  0  0  0  0  0
    2.5727    1.4375    0.0000 C   0  0  1  0  0  0  0  0  0  0  0  0
    3.2582    1.8967    0.0000 C   0  0  0  0  0  0  0  0  0  0  0  0
    3.0585    0.7398    0.0000 C   0  0  0  0  0  0  0  0  0  0  0  0
    2.5697    0.0507    0.0000 C   0  0  0  0  0  0  0  0  0  0  0  0
    1.7122    0.0396    0.0000 C   0  0  2  0  0  0  0  0  0  0  0  0
    1.1516    0.7350    0.0000 C   0  0  1  0  0  0  0  0  0  0  0  0
    1.3901    1.6858    0.0000 O   0  0  0  0  0  0  0  0  0  0  0  0
    2.1163    2.1462    0.0000 O   0  0  0  0  0  0  0  0  0  0  0  0
   -0.1987   -0.3256    0.0000 H   0  0  0  0  0  0  0  0  0  0  0  0
    0.9173   -0.1813    0.0000 H   0  0  0  0  0  0  0  0  0  0  0  0
    1.8296   -1.9508    0.0000 H   0  0  0  0  0  0  0  0  0  0  0  0
    2.9727   -1.7170    0.0000 H   0  0  0  0  0  0  0  0  0  0  0  0
    2.7389   -0.5739    0.0000 H   0  0  0  0  0  0  0  0  0  0  0  0
    2.3473   -0.4673    0.0000 H   0  0  0  0  0  0  0  0  0  0  0  0
    0.3787   -1.8967    0.0000 H   0  0  0  0  0  0  0  0  0  0  0  0
    1.1636   -2.0124    0.0000 H   0  0  0  0  0  0  0  0  0  0  0  0
   -0.5049   -0.5121    0.0000 H   0  0  0  0  0  0  0  0  0  0  0  0
   -0.2869   -1.1857    0.0000 H   0  0  0  0  0  0  0  0  0  0  0  0
    0.2779    1.0500    0.0000 H   0  0  0  0  0  0  0  0  0  0  0  0
   -1.3377   -0.8826    0.0000 H   0  0  0  0  0  0  0  0  0  0  0  0
   -1.2280    0.6506    0.0000 H   0  0  0  0  0  0  0  0  0  0  0  0
   -2.1657    0.7787    0.0000 H   0  0  0  0  0  0  0  0  0  0  0  0
   -2.5489    0.3644    0.0000 H   0  0  0  0  0  0  0  0  0  0  0  0
   -2.4839   -1.3743    0.0000 H   0  0  0  0  0  0  0  0  0  0  0  0
   -1.7766   -1.1551    0.0000 H   0  0  0  0  0  0  0  0  0  0  0  0
   -3.4691   -1.7717    0.0000 H   0  0  0  0  0  0  0  0  0  0  0  0
   -5.0783   -1.4068    0.0000 H   0  0  0  0  0  0  0  0  0  0  0  0
   -5.5669    0.1692    0.0000 H   0  0  0  0  0  0  0  0  0  0  0  0
   -4.4463    1.3803    0.0000 H   0  0  0  0  0  0  0  0  0  0  0  0
   -3.2837    1.2270    0.0000 H   0  0  0  0  0  0  0  0  0  0  0  0
    0.7787    2.2698    0.0000 H   0  0  0  0  0  0  0  0  0  0  0  0
    3.7173    1.2112    0.0000 H   0  0  0  0  0  0  0  0  0  0  0  0
    3.9436    2.3558    0.0000 H   0  0  0  0  0  0  0  0  0  0  0  0
    2.7990    2.5821    0.0000 H   0  0  0  0  0  0  0  0  0  0  0  0
    3.3174   -0.0435    0.0000 H   0  0  0  0  0  0  0  0  0  0  0  0
    3.8428    0.4840    0.0000 H   0  0  0  0  0  0  0  0  0  0  0  0
    2.4737    0.8701    0.0000 H   0  0  0  0  0  0  0  0  0  0  0  0
    1.9497    0.5951    0.0000 H   0  0  0  0  0  0  0  0  0  0  0  0
  2  1  1  1  0  0  0
  1 31  1  0  0  0  0
  1 32  1  0  0  0  0
  1 33  1  0  0  0  0
  2  3  1  0  0  0  0
 25  2  1  0  0  0  0
  2 34  1  6  0  0  0
  3  4  1  0  0  0  0
  3 35  1  0  0  0  0
  3 36  1  0  0  0  0
  5  4  1  0  0  0  0
  4 37  1  0  0  0  0
  4 38  1  0  0  0  0
  5  6  1  0  0  0  0
 26  5  1  0  0  0  0
  5 39  1  6  0  0  0
  6 29  1  6  0  0  0
  6  7  1  1  0  0  0
  6 16  1  0  0  0  0
  7  8  1  0  0  0  0
  7 40  1  0  0  0  0
  7 41  1  0  0  0  0
  8  9  1  0  0  0  0
  8 42  1  0  0  0  0
  8 43  1  0  0  0  0
  9 10  1  0  0  0  0
  9 44  1  0  0  0  0
  9 45  1  0  0  0  0
 10 11  1  0  0  0  0
 10 15  2  0  0  0  0
 11 12  2  0  0  0  0
 11 46  1  0  0  0  0
 12 13  1  0  0  0  0
 12 47  1  0  0  0  0
 13 14  2  0  0  0  0
 13 48  1  0  0  0  0
 14 15  1  0  0  0  0
 14 49  1  0  0  0  0
 15 50  1  0  0  0  0
 16 17  2  0  0  0  0
 16 18  1  0  0  0  0
 19 18  1  0  0  0  0
 19 20  1  0  0  0  0
 26 19  1  0  0  0  0
 19 51  1  1  0  0  0
 21 20  1  0  0  0  0
 21 22  1  1  0  0  0
 21 23  1  0  0  0  0
 21 28  1  0  0  0  0
 22 52  1  0  0  0  0
 22 53  1  0  0  0  0
 22 54  1  0  0  0  0
 23 24  1  0  0  0  0
 23 55  1  0  0  0  0
 23 56  1  0  0  0  0
 25 24  1  0  0  0  0
 24 57  1  0  0  0  0
 24 58  1  0  0  0  0
 25 30  1  6  0  0  0
 26 25  1  0  0  0  0
 26 27  1  6  0  0  0
 27 28  1  0  0  0  0
M  END
