
  Mrv171c004271813302D          

 57 60  0  0  0  0            999 V2000
   -1.7667   -3.0741    0.0000 C   0  0  0  0  0  0  0  0  0  0  0  0
   -2.0110   -2.2861    0.0000 C   0  0  0  0  0  0  0  0  0  0  0  0
   -1.4507   -1.6805    0.0000 C   0  0  0  0  0  0  0  0  0  0  0  0
   -1.6950   -0.8925    0.0000 C   0  0  0  0  0  0  0  0  0  0  0  0
   -1.1347   -0.2870    0.0000 C   0  0  0  0  0  0  0  0  0  0  0  0
   -1.3790    0.5010    0.0000 C   0  0  0  0  0  0  0  0  0  0  0  0
   -0.8188    1.1066    0.0000 C   0  0  1  0  0  0  0  0  0  0  0  0
   -1.1073    1.8967    0.0000 C   0  0  0  0  0  0  0  0  0  0  0  0
   -1.8898    2.1582    0.0000 O   0  0  0  0  0  0  0  0  0  0  0  0
   -0.4022    2.3543    0.0000 O   0  0  0  0  0  0  0  0  0  0  0  0
    0.4127    2.0837    0.0000 C   0  0  2  0  0  0  0  0  0  0  0  0
    1.3453    1.8630    0.0000 O   0  0  0  0  0  0  0  0  0  0  0  0
    2.1774    2.0759    0.0000 C   0  0  1  0  0  0  0  0  0  0  0  0
    2.8628    2.5351    0.0000 C   0  0  0  0  0  0  0  0  0  0  0  0
    2.6631    1.3782    0.0000 C   0  0  0  0  0  0  0  0  0  0  0  0
    2.1743    0.6891    0.0000 C   0  0  0  0  0  0  0  0  0  0  0  0
    1.3169    0.6780    0.0000 C   0  0  1  0  0  0  0  0  0  0  0  0
    1.2004   -0.1693    0.0000 C   0  0  1  0  0  0  0  0  0  0  0  0
    1.8889   -0.6240    0.0000 C   0  0  0  0  0  0  0  0  0  0  0  0
    0.4813   -0.6005    0.0000 C   0  0  0  0  0  0  0  0  0  0  0  0
   -0.0823    0.0190    0.0000 C   0  0  0  0  0  0  0  0  0  0  0  0
    0.0139    0.8739    0.0000 C   0  0  2  0  0  0  0  0  0  0  0  0
    0.7562    1.3734    0.0000 C   0  0  1  0  0  0  0  0  0  0  0  0
    0.9948    2.3242    0.0000 O   0  0  0  0  0  0  0  0  0  0  0  0
    1.7210    2.7846    0.0000 O   0  0  0  0  0  0  0  0  0  0  0  0
   -0.5940    0.3128    0.0000 H   0  0  0  0  0  0  0  0  0  0  0  0
    1.6680    1.4245    0.0000 H   0  0  0  0  0  0  0  0  0  0  0  0
   -2.5547   -3.3184    0.0000 H   0  0  0  0  0  0  0  0  0  0  0  0
   -1.5224   -3.8621    0.0000 H   0  0  0  0  0  0  0  0  0  0  0  0
   -0.9787   -2.8298    0.0000 H   0  0  0  0  0  0  0  0  0  0  0  0
   -2.6481   -1.7620    0.0000 H   0  0  0  0  0  0  0  0  0  0  0  0
   -2.8119   -2.4842    0.0000 H   0  0  0  0  0  0  0  0  0  0  0  0
   -0.8136   -2.2047    0.0000 H   0  0  0  0  0  0  0  0  0  0  0  0
   -0.6499   -1.4825    0.0000 H   0  0  0  0  0  0  0  0  0  0  0  0
   -2.3321   -0.3684    0.0000 H   0  0  0  0  0  0  0  0  0  0  0  0
   -2.4959   -1.0906    0.0000 H   0  0  0  0  0  0  0  0  0  0  0  0
   -0.4976   -0.8111    0.0000 H   0  0  0  0  0  0  0  0  0  0  0  0
   -0.3339   -0.0889    0.0000 H   0  0  0  0  0  0  0  0  0  0  0  0
   -2.0162    1.0251    0.0000 H   0  0  0  0  0  0  0  0  0  0  0  0
   -2.1799    0.3030    0.0000 H   0  0  0  0  0  0  0  0  0  0  0  0
    0.3833    2.9082    0.0000 H   0  0  0  0  0  0  0  0  0  0  0  0
    3.3219    1.8496    0.0000 H   0  0  0  0  0  0  0  0  0  0  0  0
    3.5483    2.9942    0.0000 H   0  0  0  0  0  0  0  0  0  0  0  0
    2.4037    3.2205    0.0000 H   0  0  0  0  0  0  0  0  0  0  0  0
    2.9221    0.5949    0.0000 H   0  0  0  0  0  0  0  0  0  0  0  0
    3.4475    1.1224    0.0000 H   0  0  0  0  0  0  0  0  0  0  0  0
    1.7384   -0.0113    0.0000 H   0  0  0  0  0  0  0  0  0  0  0  0
    2.5290   -0.0557    0.0000 H   0  0  0  0  0  0  0  0  0  0  0  0
    0.5120    0.2853    0.0000 H   0  0  0  0  0  0  0  0  0  0  0  0
    1.1767   -1.0404    0.0000 H   0  0  0  0  0  0  0  0  0  0  0  0
    1.9476   -1.4469    0.0000 H   0  0  0  0  0  0  0  0  0  0  0  0
    2.6529   -0.9352    0.0000 H   0  0  0  0  0  0  0  0  0  0  0  0
   -0.2484   -0.9855    0.0000 H   0  0  0  0  0  0  0  0  0  0  0  0
    0.4489   -1.4249    0.0000 H   0  0  0  0  0  0  0  0  0  0  0  0
   -0.4551    0.7550    0.0000 H   0  0  0  0  0  0  0  0  0  0  0  0
    0.7253   -0.1495    0.0000 H   0  0  0  0  0  0  0  0  0  0  0  0
   -0.1175    1.6884    0.0000 H   0  0  0  0  0  0  0  0  0  0  0  0
  1  2  1  0  0  0  0
  1 28  1  0  0  0  0
  1 29  1  0  0  0  0
  1 30  1  0  0  0  0
  2  3  1  0  0  0  0
  2 31  1  0  0  0  0
  2 32  1  0  0  0  0
  3  4  1  0  0  0  0
  3 33  1  0  0  0  0
  3 34  1  0  0  0  0
  4  5  1  0  0  0  0
  4 35  1  0  0  0  0
  4 36  1  0  0  0  0
  5  6  1  0  0  0  0
  5 37  1  0  0  0  0
  5 38  1  0  0  0  0
  7  6  1  1  0  0  0
  6 39  1  0  0  0  0
  6 40  1  0  0  0  0
  7 26  1  6  0  0  0
  7  8  1  0  0  0  0
 22  7  1  0  0  0  0
  8  9  2  0  0  0  0
  8 10  1  0  0  0  0
 11 10  1  0  0  0  0
 11 12  1  0  0  0  0
 23 11  1  0  0  0  0
 11 41  1  1  0  0  0
 13 12  1  0  0  0  0
 13 14  1  1  0  0  0
 13 15  1  0  0  0  0
 13 25  1  0  0  0  0
 14 42  1  0  0  0  0
 14 43  1  0  0  0  0
 14 44  1  0  0  0  0
 15 16  1  0  0  0  0
 15 45  1  0  0  0  0
 15 46  1  0  0  0  0
 17 16  1  0  0  0  0
 16 47  1  0  0  0  0
 16 48  1  0  0  0  0
 17 27  1  6  0  0  0
 17 18  1  0  0  0  0
 23 17  1  0  0  0  0
 18 19  1  0  0  0  0
 18 20  1  1  0  0  0
 18 49  1  6  0  0  0
 19 50  1  0  0  0  0
 19 51  1  0  0  0  0
 19 52  1  0  0  0  0
 20 21  1  0  0  0  0
 20 53  1  0  0  0  0
 20 54  1  0  0  0  0
 22 21  1  0  0  0  0
 21 55  1  0  0  0  0
 21 56  1  0  0  0  0
 23 22  1  0  0  0  0
 22 57  1  6  0  0  0
 23 24  1  6  0  0  0
 24 25  1  0  0  0  0
M  END
