
  Mrv171c004271813302D          

 49 52  0  0  0  0            999 V2000
   -3.4552    0.5245    0.0000 C   0  0  0  0  0  0  0  0  0  0  0  0
   -2.6545    0.3256    0.0000 C   0  0  0  0  0  0  0  0  0  0  0  0
   -2.0820    0.9196    0.0000 O   0  0  0  0  0  0  0  0  0  0  0  0
   -1.2813    0.7208    0.0000 C   0  0  1  0  0  0  0  0  0  0  0  0
   -0.7000    1.3262    0.0000 O   0  0  0  0  0  0  0  0  0  0  0  0
    0.0776    1.0833    0.0000 C   0  0  2  0  0  0  0  0  0  0  0  0
    0.6313    1.7444    0.0000 O   0  0  0  0  0  0  0  0  0  0  0  0
    1.3893    1.3485    0.0000 C   0  0  1  0  0  0  0  0  0  0  0  0
    1.8047    2.0613    0.0000 C   0  0  0  0  0  0  0  0  0  0  0  0
    2.1141    0.8798    0.0000 C   0  0  0  0  0  0  0  0  0  0  0  0
    2.0234    0.0364    0.0000 C   0  0  0  0  0  0  0  0  0  0  0  0
    1.2103   -0.2473    0.0000 C   0  0  1  0  0  0  0  0  0  0  0  0
    1.2952   -1.0685    0.0000 C   0  0  1  0  0  0  0  0  0  0  0  0
    2.0411   -1.4210    0.0000 C   0  0  0  0  0  0  0  0  0  0  0  0
    0.5998   -1.5288    0.0000 C   0  0  0  0  0  0  0  0  0  0  0  0
   -0.1484   -1.1541    0.0000 C   0  0  0  0  0  0  0  0  0  0  0  0
   -0.2123   -0.3042    0.0000 C   0  0  1  0  0  0  0  0  0  0  0  0
   -1.0489   -0.0931    0.0000 C   0  0  1  0  0  0  0  0  0  0  0  0
   -1.6232   -0.6854    0.0000 C   0  0  0  0  0  0  0  0  0  0  0  0
    0.4355    0.2401    0.0000 C   0  0  1  0  0  0  0  0  0  0  0  0
    0.9291    0.7156    0.0000 O   0  0  0  0  0  0  0  0  0  0  0  0
   -1.8544    0.1274    0.0000 H   0  0  0  0  0  0  0  0  0  0  0  0
    0.5097   -0.6829    0.0000 H   0  0  0  0  0  0  0  0  0  0  0  0
   -1.8447   -0.3106    0.0000 H   0  0  0  0  0  0  0  0  0  0  0  0
   -3.2563    1.3252    0.0000 H   0  0  0  0  0  0  0  0  0  0  0  0
   -4.2559    0.7234    0.0000 H   0  0  0  0  0  0  0  0  0  0  0  0
   -3.6541   -0.2762    0.0000 H   0  0  0  0  0  0  0  0  0  0  0  0
   -2.8065   -0.4852    0.0000 H   0  0  0  0  0  0  0  0  0  0  0  0
   -2.0948   -0.2805    0.0000 H   0  0  0  0  0  0  0  0  0  0  0  0
   -0.4763    0.4719    0.0000 H   0  0  0  0  0  0  0  0  0  0  0  0
    2.5175    1.6459    0.0000 H   0  0  0  0  0  0  0  0  0  0  0  0
    2.2201    2.7740    0.0000 H   0  0  0  0  0  0  0  0  0  0  0  0
    1.0919    2.4767    0.0000 H   0  0  0  0  0  0  0  0  0  0  0  0
    2.9032    0.6392    0.0000 H   0  0  0  0  0  0  0  0  0  0  0  0
    1.3694    0.5248    0.0000 H   0  0  0  0  0  0  0  0  0  0  0  0
    2.3638   -0.7150    0.0000 H   0  0  0  0  0  0  0  0  0  0  0  0
    2.8325   -0.1248    0.0000 H   0  0  0  0  0  0  0  0  0  0  0  0
    1.9685   -0.5917    0.0000 H   0  0  0  0  0  0  0  0  0  0  0  0
    1.4317   -1.9772    0.0000 H   0  0  0  0  0  0  0  0  0  0  0  0
    2.3242   -2.1959    0.0000 H   0  0  0  0  0  0  0  0  0  0  0  0
    2.8655   -1.4534    0.0000 H   0  0  0  0  0  0  0  0  0  0  0  0
   -0.0935   -1.9760    0.0000 H   0  0  0  0  0  0  0  0  0  0  0  0
    0.6322   -2.3532    0.0000 H   0  0  0  0  0  0  0  0  0  0  0  0
   -0.8908   -0.7943    0.0000 H   0  0  0  0  0  0  0  0  0  0  0  0
   -0.8325   -1.6152    0.0000 H   0  0  0  0  0  0  0  0  0  0  0  0
    0.0094    0.4904    0.0000 H   0  0  0  0  0  0  0  0  0  0  0  0
   -2.4290   -0.8626    0.0000 H   0  0  0  0  0  0  0  0  0  0  0  0
   -1.9660   -1.4358    0.0000 H   0  0  0  0  0  0  0  0  0  0  0  0
   -1.2296   -1.4105    0.0000 H   0  0  0  0  0  0  0  0  0  0  0  0
  1  2  1  0  0  0  0
  1 25  1  0  0  0  0
  1 26  1  0  0  0  0
  1 27  1  0  0  0  0
  2  3  1  0  0  0  0
  2 28  1  0  0  0  0
  2 29  1  0  0  0  0
  4  3  1  0  0  0  0
  4 22  1  6  0  0  0
  4  5  1  0  0  0  0
 18  4  1  0  0  0  0
  6  5  1  0  0  0  0
  6  7  1  0  0  0  0
 20  6  1  0  0  0  0
  6 30  1  1  0  0  0
  8  7  1  0  0  0  0
  8  9  1  6  0  0  0
  8 10  1  0  0  0  0
  8 21  1  0  0  0  0
  9 31  1  0  0  0  0
  9 32  1  0  0  0  0
  9 33  1  0  0  0  0
 10 11  1  0  0  0  0
 10 34  1  0  0  0  0
 10 35  1  0  0  0  0
 12 11  1  0  0  0  0
 11 36  1  0  0  0  0
 11 37  1  0  0  0  0
 12 23  1  6  0  0  0
 12 13  1  0  0  0  0
 20 12  1  0  0  0  0
 13 14  1  0  0  0  0
 13 15  1  0  0  0  0
 13 38  1  6  0  0  0
 14 39  1  0  0  0  0
 14 40  1  0  0  0  0
 14 41  1  0  0  0  0
 15 16  1  0  0  0  0
 15 42  1  0  0  0  0
 15 43  1  0  0  0  0
 17 16  1  0  0  0  0
 16 44  1  0  0  0  0
 16 45  1  0  0  0  0
 17 18  1  0  0  0  0
 20 17  1  0  0  0  0
 17 46  1  6  0  0  0
 18 24  1  6  0  0  0
 18 19  1  0  0  0  0
 19 47  1  0  0  0  0
 19 48  1  0  0  0  0
 19 49  1  0  0  0  0
 20 21  1  6  0  0  0
M  END
