
  Mrv171c004271813302D          

 52 55  0  0  0  0            999 V2000
   -1.6841   -2.3665    0.0000 C   0  0  0  0  0  0  0  0  0  0  0  0
   -1.9284   -1.5785    0.0000 C   0  0  0  0  0  0  0  0  0  0  0  0
   -1.3681   -0.9729    0.0000 C   0  0  0  0  0  0  0  0  0  0  0  0
   -1.6124   -0.1849    0.0000 C   0  0  0  0  0  0  0  0  0  0  0  0
   -1.0521    0.4207    0.0000 C   0  0  1  0  0  0  0  0  0  0  0  0
   -1.3407    1.2108    0.0000 C   0  0  0  0  0  0  0  0  0  0  0  0
   -0.6355    1.6684    0.0000 O   0  0  0  0  0  0  0  0  0  0  0  0
    0.1793    1.3978    0.0000 C   0  0  2  0  0  0  0  0  0  0  0  0
    1.1120    1.1771    0.0000 O   0  0  0  0  0  0  0  0  0  0  0  0
    1.9440    1.3900    0.0000 C   0  0  1  0  0  0  0  0  0  0  0  0
    2.6294    1.8491    0.0000 C   0  0  0  0  0  0  0  0  0  0  0  0
    2.4298    0.6922    0.0000 C   0  0  0  0  0  0  0  0  0  0  0  0
    1.9410    0.0032    0.0000 C   0  0  0  0  0  0  0  0  0  0  0  0
    1.0835   -0.0080    0.0000 C   0  0  1  0  0  0  0  0  0  0  0  0
    0.9671   -0.8553    0.0000 C   0  0  1  0  0  0  0  0  0  0  0  0
    1.6555   -1.3099    0.0000 C   0  0  0  0  0  0  0  0  0  0  0  0
    0.2479   -1.2864    0.0000 C   0  0  0  0  0  0  0  0  0  0  0  0
   -0.3157   -0.6669    0.0000 C   0  0  0  0  0  0  0  0  0  0  0  0
   -0.2195    0.1880    0.0000 C   0  0  2  0  0  0  0  0  0  0  0  0
    0.5228    0.6874    0.0000 C   0  0  1  0  0  0  0  0  0  0  0  0
    0.7614    1.6383    0.0000 O   0  0  0  0  0  0  0  0  0  0  0  0
    1.4876    2.0986    0.0000 O   0  0  0  0  0  0  0  0  0  0  0  0
   -0.8274   -0.3732    0.0000 H   0  0  0  0  0  0  0  0  0  0  0  0
    1.4346    0.7386    0.0000 H   0  0  0  0  0  0  0  0  0  0  0  0
   -2.4721   -2.6108    0.0000 H   0  0  0  0  0  0  0  0  0  0  0  0
   -1.4398   -3.1545    0.0000 H   0  0  0  0  0  0  0  0  0  0  0  0
   -0.8961   -2.1222    0.0000 H   0  0  0  0  0  0  0  0  0  0  0  0
   -2.5655   -1.0544    0.0000 H   0  0  0  0  0  0  0  0  0  0  0  0
   -2.7293   -1.7765    0.0000 H   0  0  0  0  0  0  0  0  0  0  0  0
   -0.7310   -1.4970    0.0000 H   0  0  0  0  0  0  0  0  0  0  0  0
   -0.5672   -0.7748    0.0000 H   0  0  0  0  0  0  0  0  0  0  0  0
   -2.2495    0.3392    0.0000 H   0  0  0  0  0  0  0  0  0  0  0  0
   -2.4133   -0.3830    0.0000 H   0  0  0  0  0  0  0  0  0  0  0  0
   -1.9029    1.8145    0.0000 H   0  0  0  0  0  0  0  0  0  0  0  0
   -2.1529    1.0663    0.0000 H   0  0  0  0  0  0  0  0  0  0  0  0
    0.1500    2.2223    0.0000 H   0  0  0  0  0  0  0  0  0  0  0  0
    3.0886    1.1637    0.0000 H   0  0  0  0  0  0  0  0  0  0  0  0
    3.3149    2.3082    0.0000 H   0  0  0  0  0  0  0  0  0  0  0  0
    2.1703    2.5346    0.0000 H   0  0  0  0  0  0  0  0  0  0  0  0
    2.6887   -0.0911    0.0000 H   0  0  0  0  0  0  0  0  0  0  0  0
    3.2141    0.4365    0.0000 H   0  0  0  0  0  0  0  0  0  0  0  0
    1.5050   -0.6972    0.0000 H   0  0  0  0  0  0  0  0  0  0  0  0
    2.2956   -0.7417    0.0000 H   0  0  0  0  0  0  0  0  0  0  0  0
    0.2786   -0.4006    0.0000 H   0  0  0  0  0  0  0  0  0  0  0  0
    0.9433   -1.7264    0.0000 H   0  0  0  0  0  0  0  0  0  0  0  0
    1.7142   -2.1328    0.0000 H   0  0  0  0  0  0  0  0  0  0  0  0
    2.4196   -1.6211    0.0000 H   0  0  0  0  0  0  0  0  0  0  0  0
   -0.4818   -1.6715    0.0000 H   0  0  0  0  0  0  0  0  0  0  0  0
    0.2155   -2.1108    0.0000 H   0  0  0  0  0  0  0  0  0  0  0  0
   -0.6884    0.0690    0.0000 H   0  0  0  0  0  0  0  0  0  0  0  0
    0.4920   -0.8354    0.0000 H   0  0  0  0  0  0  0  0  0  0  0  0
   -0.3508    1.0025    0.0000 H   0  0  0  0  0  0  0  0  0  0  0  0
  1  2  1  0  0  0  0
  1 25  1  0  0  0  0
  1 26  1  0  0  0  0
  1 27  1  0  0  0  0
  2  3  1  0  0  0  0
  2 28  1  0  0  0  0
  2 29  1  0  0  0  0
  3  4  1  0  0  0  0
  3 30  1  0  0  0  0
  3 31  1  0  0  0  0
  5  4  1  1  0  0  0
  4 32  1  0  0  0  0
  4 33  1  0  0  0  0
  5 23  1  6  0  0  0
  5  6  1  0  0  0  0
 19  5  1  0  0  0  0
  6  7  1  0  0  0  0
  6 34  1  0  0  0  0
  6 35  1  0  0  0  0
  8  7  1  0  0  0  0
  8  9  1  0  0  0  0
 20  8  1  0  0  0  0
  8 36  1  1  0  0  0
 10  9  1  0  0  0  0
 10 11  1  1  0  0  0
 10 12  1  0  0  0  0
 10 22  1  0  0  0  0
 11 37  1  0  0  0  0
 11 38  1  0  0  0  0
 11 39  1  0  0  0  0
 12 13  1  0  0  0  0
 12 40  1  0  0  0  0
 12 41  1  0  0  0  0
 14 13  1  0  0  0  0
 13 42  1  0  0  0  0
 13 43  1  0  0  0  0
 14 24  1  6  0  0  0
 14 15  1  0  0  0  0
 20 14  1  0  0  0  0
 15 16  1  0  0  0  0
 15 17  1  1  0  0  0
 15 44  1  6  0  0  0
 16 45  1  0  0  0  0
 16 46  1  0  0  0  0
 16 47  1  0  0  0  0
 17 18  1  0  0  0  0
 17 48  1  0  0  0  0
 17 49  1  0  0  0  0
 19 18  1  0  0  0  0
 18 50  1  0  0  0  0
 18 51  1  0  0  0  0
 20 19  1  0  0  0  0
 19 52  1  6  0  0  0
 20 21  1  6  0  0  0
 21 22  1  0  0  0  0
M  END
