
  Mrv171c004271813302D          

 51 54  0  0  0  0            999 V2000
   -0.1499    3.7813    0.0000 C   0  0  0  0  0  0  0  0  0  0  0  0
   -0.0687    2.9603    0.0000 C   0  0  0  0  0  0  0  0  0  0  0  0
    0.6829    2.6201    0.0000 O   0  0  0  0  0  0  0  0  0  0  0  0
    0.7640    1.7991    0.0000 C   0  0  0  0  0  0  0  0  0  0  0  0
    0.0936    1.3183    0.0000 O   0  0  0  0  0  0  0  0  0  0  0  0
    1.5156    1.4589    0.0000 C   0  0  0  0  0  0  0  0  0  0  0  0
    1.5968    0.6379    0.0000 C   0  0  0  0  0  0  0  0  0  0  0  0
    0.9264    0.1571    0.0000 C   0  0  1  0  0  0  0  0  0  0  0  0
    1.4302   -0.5427    0.0000 C   0  0  0  0  0  0  0  0  0  0  0  0
    0.9461   -1.2465    0.0000 C   0  0  0  0  0  0  0  0  0  0  0  0
    0.0878   -1.3033    0.0000 C   0  0  1  0  0  0  0  0  0  0  0  0
   -0.0359   -2.1524    0.0000 C   0  0  1  0  0  0  0  0  0  0  0  0
    0.6425   -2.6219    0.0000 C   0  0  0  0  0  0  0  0  0  0  0  0
   -0.7696   -2.5577    0.0000 C   0  0  0  0  0  0  0  0  0  0  0  0
   -1.3200   -1.9407    0.0000 C   0  0  0  0  0  0  0  0  0  0  0  0
   -1.2320   -1.0996    0.0000 C   0  0  1  0  0  0  0  0  0  0  0  0
   -2.0480   -0.8251    0.0000 C   0  0  0  0  0  0  0  0  0  0  0  0
   -2.3597   -0.0347    0.0000 C   0  0  0  0  0  0  0  0  0  0  0  0
   -3.1446    0.2195    0.0000 O   0  0  0  0  0  0  0  0  0  0  0  0
   -1.6501    0.4189    0.0000 O   0  0  0  0  0  0  0  0  0  0  0  0
   -0.8217    0.1220    0.0000 C   0  0  2  0  0  0  0  0  0  0  0  0
    0.1135   -0.1281    0.0000 O   0  0  0  0  0  0  0  0  0  0  0  0
   -0.4921   -0.6086    0.0000 C   0  0  1  0  0  0  0  0  0  0  0  0
   -0.2433    0.3223    0.0000 O   0  0  0  0  0  0  0  0  0  0  0  0
    0.4266    0.8568    0.0000 O   0  0  0  0  0  0  0  0  0  0  0  0
   -0.7061   -1.5276    0.0000 H   0  0  0  0  0  0  0  0  0  0  0  0
    0.6711    3.8624    0.0000 H   0  0  0  0  0  0  0  0  0  0  0  0
   -0.2310    4.6023    0.0000 H   0  0  0  0  0  0  0  0  0  0  0  0
   -0.9709    3.7001    0.0000 H   0  0  0  0  0  0  0  0  0  0  0  0
   -0.8836    2.8315    0.0000 H   0  0  0  0  0  0  0  0  0  0  0  0
   -0.4520    2.2298    0.0000 H   0  0  0  0  0  0  0  0  0  0  0  0
    2.3305    1.5876    0.0000 H   0  0  0  0  0  0  0  0  0  0  0  0
    1.8990    2.1894    0.0000 H   0  0  0  0  0  0  0  0  0  0  0  0
    2.1158   -0.0035    0.0000 H   0  0  0  0  0  0  0  0  0  0  0  0
    2.4211    0.6712    0.0000 H   0  0  0  0  0  0  0  0  0  0  0  0
    1.7085   -1.3193    0.0000 H   0  0  0  0  0  0  0  0  0  0  0  0
    2.2231   -0.7708    0.0000 H   0  0  0  0  0  0  0  0  0  0  0  0
    0.9340   -2.0714    0.0000 H   0  0  0  0  0  0  0  0  0  0  0  0
    0.5382   -0.5294    0.0000 H   0  0  0  0  0  0  0  0  0  0  0  0
    0.7206   -1.8232    0.0000 H   0  0  0  0  0  0  0  0  0  0  0  0
   -0.0373   -3.0893    0.0000 H   0  0  0  0  0  0  0  0  0  0  0  0
    0.8379   -3.4234    0.0000 H   0  0  0  0  0  0  0  0  0  0  0  0
    1.4612   -2.7239    0.0000 H   0  0  0  0  0  0  0  0  0  0  0  0
   -1.5078   -2.9260    0.0000 H   0  0  0  0  0  0  0  0  0  0  0  0
   -1.0620   -3.3292    0.0000 H   0  0  0  0  0  0  0  0  0  0  0  0
   -2.1381   -1.8341    0.0000 H   0  0  0  0  0  0  0  0  0  0  0  0
   -1.9216   -2.5052    0.0000 H   0  0  0  0  0  0  0  0  0  0  0  0
   -1.3395   -0.2816    0.0000 H   0  0  0  0  0  0  0  0  0  0  0  0
   -2.8186   -1.1197    0.0000 H   0  0  0  0  0  0  0  0  0  0  0  0
   -2.3028   -1.6097    0.0000 H   0  0  0  0  0  0  0  0  0  0  0  0
   -0.8173    0.9470    0.0000 H   0  0  0  0  0  0  0  0  0  0  0  0
  1  2  1  0  0  0  0
  1 27  1  0  0  0  0
  1 28  1  0  0  0  0
  1 29  1  0  0  0  0
  2  3  1  0  0  0  0
  2 30  1  0  0  0  0
  2 31  1  0  0  0  0
  3  4  1  0  0  0  0
  4  5  2  0  0  0  0
  4  6  1  0  0  0  0
  6  7  1  0  0  0  0
  6 32  1  0  0  0  0
  6 33  1  0  0  0  0
  8  7  1  1  0  0  0
  7 34  1  0  0  0  0
  7 35  1  0  0  0  0
  8  9  1  0  0  0  0
  8 22  1  0  0  0  0
  8 25  1  0  0  0  0
  9 10  1  0  0  0  0
  9 36  1  0  0  0  0
  9 37  1  0  0  0  0
 11 10  1  0  0  0  0
 10 38  1  0  0  0  0
 10 39  1  0  0  0  0
 11 26  1  6  0  0  0
 11 12  1  0  0  0  0
 23 11  1  0  0  0  0
 12 13  1  1  0  0  0
 12 14  1  0  0  0  0
 12 40  1  6  0  0  0
 13 41  1  0  0  0  0
 13 42  1  0  0  0  0
 13 43  1  0  0  0  0
 14 15  1  0  0  0  0
 14 44  1  0  0  0  0
 14 45  1  0  0  0  0
 16 15  1  0  0  0  0
 15 46  1  0  0  0  0
 15 47  1  0  0  0  0
 16 17  1  0  0  0  0
 23 16  1  0  0  0  0
 16 48  1  6  0  0  0
 17 18  1  0  0  0  0
 17 49  1  0  0  0  0
 17 50  1  0  0  0  0
 18 19  2  0  0  0  0
 18 20  1  0  0  0  0
 21 20  1  0  0  0  0
 21 22  1  0  0  0  0
 23 21  1  0  0  0  0
 21 51  1  1  0  0  0
 23 24  1  6  0  0  0
 24 25  1  0  0  0  0
M  END
