
  Mrv171c004271813302D          

 61 65  0  0  0  0            999 V2000
    2.5709   -0.9701    0.0000 C   0  0  0  0  0  0  0  0  0  0  0  0
    1.8825   -0.5155    0.0000 C   0  0  1  0  0  0  0  0  0  0  0  0
    1.1633   -0.9467    0.0000 C   0  0  0  0  0  0  0  0  0  0  0  0
    0.5998   -0.3271    0.0000 C   0  0  0  0  0  0  0  0  0  0  0  0
    0.6959    0.5278    0.0000 C   0  0  1  0  0  0  0  0  0  0  0  0
   -0.1367    0.7604    0.0000 C   0  0  1  0  0  0  0  0  0  0  0  0
   -0.6970    0.1549    0.0000 C   0  0  0  0  0  0  0  0  0  0  0  0
   -1.5016    0.3373    0.0000 C   0  0  0  0  0  0  0  0  0  0  0  0
   -2.0618   -0.2683    0.0000 C   0  0  0  0  0  0  0  0  0  0  0  0
   -2.8664   -0.0858    0.0000 C   0  0  0  0  0  0  0  0  0  0  0  0
   -3.4267   -0.6914    0.0000 C   0  0  0  0  0  0  0  0  0  0  0  0
   -3.1824   -1.4794    0.0000 C   0  0  0  0  0  0  0  0  0  0  0  0
   -3.7427   -2.0850    0.0000 C   0  0  0  0  0  0  0  0  0  0  0  0
   -4.5473   -1.9025    0.0000 C   0  0  0  0  0  0  0  0  0  0  0  0
   -4.7916   -1.1145    0.0000 C   0  0  0  0  0  0  0  0  0  0  0  0
   -4.2313   -0.5090    0.0000 C   0  0  0  0  0  0  0  0  0  0  0  0
   -0.4253    1.5505    0.0000 C   0  0  0  0  0  0  0  0  0  0  0  0
   -1.2077    1.8120    0.0000 O   0  0  0  0  0  0  0  0  0  0  0  0
    0.2799    2.0082    0.0000 O   0  0  0  0  0  0  0  0  0  0  0  0
    1.0947    1.7376    0.0000 C   0  0  2  0  0  0  0  0  0  0  0  0
    2.0274    1.5169    0.0000 O   0  0  0  0  0  0  0  0  0  0  0  0
    2.8594    1.7298    0.0000 C   0  0  1  0  0  0  0  0  0  0  0  0
    3.5449    2.1889    0.0000 C   0  0  0  0  0  0  0  0  0  0  0  0
    3.3452    1.0320    0.0000 C   0  0  0  0  0  0  0  0  0  0  0  0
    2.8564    0.3430    0.0000 C   0  0  0  0  0  0  0  0  0  0  0  0
    1.9989    0.3318    0.0000 C   0  0  2  0  0  0  0  0  0  0  0  0
    1.4383    1.0272    0.0000 C   0  0  1  0  0  0  0  0  0  0  0  0
    1.6768    1.9780    0.0000 O   0  0  0  0  0  0  0  0  0  0  0  0
    2.4030    2.4384    0.0000 O   0  0  0  0  0  0  0  0  0  0  0  0
    0.0880   -0.0334    0.0000 H   0  0  0  0  0  0  0  0  0  0  0  0
    1.2040    0.1110    0.0000 H   0  0  0  0  0  0  0  0  0  0  0  0
    2.1163   -1.6585    0.0000 H   0  0  0  0  0  0  0  0  0  0  0  0
    3.2594   -1.4247    0.0000 H   0  0  0  0  0  0  0  0  0  0  0  0
    3.0256   -0.2817    0.0000 H   0  0  0  0  0  0  0  0  0  0  0  0
    2.6340   -0.1751    0.0000 H   0  0  0  0  0  0  0  0  0  0  0  0
    0.6654   -1.6045    0.0000 H   0  0  0  0  0  0  0  0  0  0  0  0
    1.4503   -1.7201    0.0000 H   0  0  0  0  0  0  0  0  0  0  0  0
   -0.2182   -0.2198    0.0000 H   0  0  0  0  0  0  0  0  0  0  0  0
   -0.0002   -0.8935    0.0000 H   0  0  0  0  0  0  0  0  0  0  0  0
    0.5646    1.3422    0.0000 H   0  0  0  0  0  0  0  0  0  0  0  0
   -1.0510   -0.5903    0.0000 H   0  0  0  0  0  0  0  0  0  0  0  0
   -0.9413    0.9429    0.0000 H   0  0  0  0  0  0  0  0  0  0  0  0
   -1.8790    1.0709    0.0000 H   0  0  0  0  0  0  0  0  0  0  0  0
   -2.2622    0.6567    0.0000 H   0  0  0  0  0  0  0  0  0  0  0  0
   -2.1972   -1.0821    0.0000 H   0  0  0  0  0  0  0  0  0  0  0  0
   -1.4899   -0.8628    0.0000 H   0  0  0  0  0  0  0  0  0  0  0  0
   -3.1439    0.6911    0.0000 H   0  0  0  0  0  0  0  0  0  0  0  0
   -3.6747    0.0795    0.0000 H   0  0  0  0  0  0  0  0  0  0  0  0
   -2.3778   -1.6618    0.0000 H   0  0  0  0  0  0  0  0  0  0  0  0
   -3.4984   -2.8730    0.0000 H   0  0  0  0  0  0  0  0  0  0  0  0
   -5.1075   -2.5081    0.0000 H   0  0  0  0  0  0  0  0  0  0  0  0
   -5.5961   -0.9321    0.0000 H   0  0  0  0  0  0  0  0  0  0  0  0
   -4.8338    0.0546    0.0000 H   0  0  0  0  0  0  0  0  0  0  0  0
    1.0654    2.5620    0.0000 H   0  0  0  0  0  0  0  0  0  0  0  0
    4.0040    1.5035    0.0000 H   0  0  0  0  0  0  0  0  0  0  0  0
    4.2303    2.6480    0.0000 H   0  0  0  0  0  0  0  0  0  0  0  0
    3.0858    2.8744    0.0000 H   0  0  0  0  0  0  0  0  0  0  0  0
    3.6042    0.2487    0.0000 H   0  0  0  0  0  0  0  0  0  0  0  0
    4.1295    0.7763    0.0000 H   0  0  0  0  0  0  0  0  0  0  0  0
    2.7604    1.1624    0.0000 H   0  0  0  0  0  0  0  0  0  0  0  0
    2.2365    0.8873    0.0000 H   0  0  0  0  0  0  0  0  0  0  0  0
  2  1  1  1  0  0  0
  1 32  1  0  0  0  0
  1 33  1  0  0  0  0
  1 34  1  0  0  0  0
  2  3  1  0  0  0  0
 26  2  1  0  0  0  0
  2 35  1  6  0  0  0
  3  4  1  0  0  0  0
  3 36  1  0  0  0  0
  3 37  1  0  0  0  0
  5  4  1  0  0  0  0
  4 38  1  0  0  0  0
  4 39  1  0  0  0  0
  5  6  1  0  0  0  0
 27  5  1  0  0  0  0
  5 40  1  6  0  0  0
  6 30  1  6  0  0  0
  6  7  1  1  0  0  0
  6 17  1  0  0  0  0
  7  8  1  0  0  0  0
  7 41  1  0  0  0  0
  7 42  1  0  0  0  0
  8  9  1  0  0  0  0
  8 43  1  0  0  0  0
  8 44  1  0  0  0  0
  9 10  1  0  0  0  0
  9 45  1  0  0  0  0
  9 46  1  0  0  0  0
 10 11  1  0  0  0  0
 10 47  1  0  0  0  0
 10 48  1  0  0  0  0
 11 12  1  0  0  0  0
 11 16  2  0  0  0  0
 12 13  2  0  0  0  0
 12 49  1  0  0  0  0
 13 14  1  0  0  0  0
 13 50  1  0  0  0  0
 14 15  2  0  0  0  0
 14 51  1  0  0  0  0
 15 16  1  0  0  0  0
 15 52  1  0  0  0  0
 16 53  1  0  0  0  0
 17 18  2  0  0  0  0
 17 19  1  0  0  0  0
 20 19  1  0  0  0  0
 20 21  1  0  0  0  0
 27 20  1  0  0  0  0
 20 54  1  1  0  0  0
 22 21  1  0  0  0  0
 22 23  1  1  0  0  0
 22 24  1  0  0  0  0
 22 29  1  0  0  0  0
 23 55  1  0  0  0  0
 23 56  1  0  0  0  0
 23 57  1  0  0  0  0
 24 25  1  0  0  0  0
 24 58  1  0  0  0  0
 24 59  1  0  0  0  0
 26 25  1  0  0  0  0
 25 60  1  0  0  0  0
 25 61  1  0  0  0  0
 26 31  1  6  0  0  0
 27 26  1  0  0  0  0
 27 28  1  6  0  0  0
 28 29  1  0  0  0  0
M  END
