
  Mrv171c004271813302D          

 52 56  0  0  0  0            999 V2000
    0.1808   -2.6104    0.0000 C   0  0  0  0  0  0  0  0  0  0  0  0
   -0.5077   -2.1558    0.0000 C   0  0  1  0  0  0  0  0  0  0  0  0
   -1.2269   -2.5869    0.0000 C   0  0  0  0  0  0  0  0  0  0  0  0
   -1.7904   -1.9674    0.0000 C   0  0  0  0  0  0  0  0  0  0  0  0
   -1.6942   -1.1125    0.0000 C   0  0  1  0  0  0  0  0  0  0  0  0
   -2.5269   -0.8798    0.0000 C   0  0  0  0  0  0  0  0  0  0  0  0
   -2.8154   -0.0897    0.0000 C   0  0  0  0  0  0  0  0  0  0  0  0
   -3.5979    0.1717    0.0000 O   0  0  0  0  0  0  0  0  0  0  0  0
   -2.1103    0.3679    0.0000 O   0  0  0  0  0  0  0  0  0  0  0  0
   -1.2955    0.0973    0.0000 C   0  0  2  0  0  0  0  0  0  0  0  0
   -0.3628   -0.1234    0.0000 O   0  0  0  0  0  0  0  0  0  0  0  0
    0.4693    0.0895    0.0000 C   0  0  1  0  0  0  0  0  0  0  0  0
    1.1547    0.5486    0.0000 C   0  0  0  0  0  0  0  0  0  0  0  0
    1.0998    1.3718    0.0000 C   0  0  0  0  0  0  0  0  0  0  0  0
    1.7853    1.8309    0.0000 C   0  0  0  0  0  0  0  0  0  0  0  0
    1.7304    2.6541    0.0000 C   0  0  0  0  0  0  0  0  0  0  0  0
    2.4158    3.1132    0.0000 C   0  0  0  0  0  0  0  0  0  0  0  0
    3.1562    2.7491    0.0000 C   0  0  0  0  0  0  0  0  0  0  0  0
    3.2110    1.9260    0.0000 C   0  0  0  0  0  0  0  0  0  0  0  0
    2.5256    1.4669    0.0000 C   0  0  0  0  0  0  0  0  0  0  0  0
    0.9550   -0.6083    0.0000 C   0  0  0  0  0  0  0  0  0  0  0  0
    0.4662   -1.2973    0.0000 C   0  0  0  0  0  0  0  0  0  0  0  0
   -0.3912   -1.3085    0.0000 C   0  0  2  0  0  0  0  0  0  0  0  0
   -0.9519   -0.6130    0.0000 C   0  0  1  0  0  0  0  0  0  0  0  0
   -0.7133    0.3378    0.0000 O   0  0  0  0  0  0  0  0  0  0  0  0
    0.0129    0.7981    0.0000 O   0  0  0  0  0  0  0  0  0  0  0  0
   -1.1861   -1.5293    0.0000 H   0  0  0  0  0  0  0  0  0  0  0  0
   -0.2739   -3.2988    0.0000 H   0  0  0  0  0  0  0  0  0  0  0  0
    0.8692   -3.0650    0.0000 H   0  0  0  0  0  0  0  0  0  0  0  0
    0.6354   -1.9220    0.0000 H   0  0  0  0  0  0  0  0  0  0  0  0
    0.2438   -1.8154    0.0000 H   0  0  0  0  0  0  0  0  0  0  0  0
   -1.7248   -3.2448    0.0000 H   0  0  0  0  0  0  0  0  0  0  0  0
   -0.9399   -3.3604    0.0000 H   0  0  0  0  0  0  0  0  0  0  0  0
   -2.6084   -1.8601    0.0000 H   0  0  0  0  0  0  0  0  0  0  0  0
   -2.3903   -2.5337    0.0000 H   0  0  0  0  0  0  0  0  0  0  0  0
   -1.8256   -0.2980    0.0000 H   0  0  0  0  0  0  0  0  0  0  0  0
   -3.2961   -1.1780    0.0000 H   0  0  0  0  0  0  0  0  0  0  0  0
   -2.7645   -1.6699    0.0000 H   0  0  0  0  0  0  0  0  0  0  0  0
   -1.3248    0.9218    0.0000 H   0  0  0  0  0  0  0  0  0  0  0  0
    1.6529   -0.1090    0.0000 H   0  0  0  0  0  0  0  0  0  0  0  0
    1.9797    0.5556    0.0000 H   0  0  0  0  0  0  0  0  0  0  0  0
    0.6016    2.0294    0.0000 H   0  0  0  0  0  0  0  0  0  0  0  0
    0.2749    1.3649    0.0000 H   0  0  0  0  0  0  0  0  0  0  0  0
    0.9901    3.0181    0.0000 H   0  0  0  0  0  0  0  0  0  0  0  0
    2.3610    3.9364    0.0000 H   0  0  0  0  0  0  0  0  0  0  0  0
    3.8416    3.2083    0.0000 H   0  0  0  0  0  0  0  0  0  0  0  0
    3.9514    1.5619    0.0000 H   0  0  0  0  0  0  0  0  0  0  0  0
    2.5805    0.6437    0.0000 H   0  0  0  0  0  0  0  0  0  0  0  0
    1.2140   -1.3916    0.0000 H   0  0  0  0  0  0  0  0  0  0  0  0
    1.7394   -0.8641    0.0000 H   0  0  0  0  0  0  0  0  0  0  0  0
    0.3702   -0.4779    0.0000 H   0  0  0  0  0  0  0  0  0  0  0  0
   -0.1537   -0.7529    0.0000 H   0  0  0  0  0  0  0  0  0  0  0  0
  2  1  1  1  0  0  0
  1 28  1  0  0  0  0
  1 29  1  0  0  0  0
  1 30  1  0  0  0  0
  2  3  1  0  0  0  0
 23  2  1  0  0  0  0
  2 31  1  6  0  0  0
  3  4  1  0  0  0  0
  3 32  1  0  0  0  0
  3 33  1  0  0  0  0
  5  4  1  0  0  0  0
  4 34  1  0  0  0  0
  4 35  1  0  0  0  0
  5  6  1  0  0  0  0
 24  5  1  0  0  0  0
  5 36  1  6  0  0  0
  6  7  1  0  0  0  0
  6 37  1  0  0  0  0
  6 38  1  0  0  0  0
  7  8  2  0  0  0  0
  7  9  1  0  0  0  0
 10  9  1  0  0  0  0
 10 11  1  0  0  0  0
 24 10  1  0  0  0  0
 10 39  1  1  0  0  0
 12 11  1  0  0  0  0
 12 13  1  1  0  0  0
 12 21  1  0  0  0  0
 12 26  1  0  0  0  0
 13 14  1  0  0  0  0
 13 40  1  0  0  0  0
 13 41  1  0  0  0  0
 14 15  1  0  0  0  0
 14 42  1  0  0  0  0
 14 43  1  0  0  0  0
 15 16  1  0  0  0  0
 15 20  2  0  0  0  0
 16 17  2  0  0  0  0
 16 44  1  0  0  0  0
 17 18  1  0  0  0  0
 17 45  1  0  0  0  0
 18 19  2  0  0  0  0
 18 46  1  0  0  0  0
 19 20  1  0  0  0  0
 19 47  1  0  0  0  0
 20 48  1  0  0  0  0
 21 22  1  0  0  0  0
 21 49  1  0  0  0  0
 21 50  1  0  0  0  0
 23 22  1  0  0  0  0
 22 51  1  0  0  0  0
 22 52  1  0  0  0  0
 23 27  1  6  0  0  0
 24 23  1  0  0  0  0
 24 25  1  6  0  0  0
 25 26  1  0  0  0  0
M  END
