
  Mrv171c004271813302D          

 40 43  0  0  0  0            999 V2000
    1.0076   -1.7787    0.0000 C   0  0  0  0  0  0  0  0  0  0  0  0
    0.3192   -1.3241    0.0000 C   0  0  1  0  0  0  0  0  0  0  0  0
   -0.4000   -1.7553    0.0000 C   0  0  0  0  0  0  0  0  0  0  0  0
   -0.9635   -1.1358    0.0000 C   0  0  0  0  0  0  0  0  0  0  0  0
   -0.8674   -0.2809    0.0000 C   0  0  1  0  0  0  0  0  0  0  0  0
   -1.7000   -0.0482    0.0000 C   0  0  0  0  0  0  0  0  0  0  0  0
   -1.9886    0.7419    0.0000 C   0  0  0  0  0  0  0  0  0  0  0  0
   -1.2834    1.1995    0.0000 O   0  0  0  0  0  0  0  0  0  0  0  0
   -0.4686    0.9289    0.0000 C   0  0  2  0  0  0  0  0  0  0  0  0
    0.4641    0.7082    0.0000 O   0  0  0  0  0  0  0  0  0  0  0  0
    1.2961    0.9212    0.0000 C   0  0  1  0  0  0  0  0  0  0  0  0
    1.9816    1.3803    0.0000 C   0  0  0  0  0  0  0  0  0  0  0  0
    1.7819    0.2234    0.0000 C   0  0  0  0  0  0  0  0  0  0  0  0
    1.2931   -0.4656    0.0000 C   0  0  0  0  0  0  0  0  0  0  0  0
    0.4356   -0.4768    0.0000 C   0  0  2  0  0  0  0  0  0  0  0  0
   -0.1251    0.2186    0.0000 C   0  0  1  0  0  0  0  0  0  0  0  0
    0.1135    1.1694    0.0000 O   0  0  0  0  0  0  0  0  0  0  0  0
    0.8397    1.6298    0.0000 O   0  0  0  0  0  0  0  0  0  0  0  0
   -0.3593   -0.6977    0.0000 H   0  0  0  0  0  0  0  0  0  0  0  0
    0.5530   -2.4672    0.0000 H   0  0  0  0  0  0  0  0  0  0  0  0
    1.6960   -2.2334    0.0000 H   0  0  0  0  0  0  0  0  0  0  0  0
    1.4622   -1.0903    0.0000 H   0  0  0  0  0  0  0  0  0  0  0  0
    1.0707   -0.9837    0.0000 H   0  0  0  0  0  0  0  0  0  0  0  0
   -0.8979   -2.4131    0.0000 H   0  0  0  0  0  0  0  0  0  0  0  0
   -0.1130   -2.5288    0.0000 H   0  0  0  0  0  0  0  0  0  0  0  0
   -1.7815   -1.0285    0.0000 H   0  0  0  0  0  0  0  0  0  0  0  0
   -1.5635   -1.7021    0.0000 H   0  0  0  0  0  0  0  0  0  0  0  0
   -0.9987    0.5336    0.0000 H   0  0  0  0  0  0  0  0  0  0  0  0
   -2.4693   -0.3464    0.0000 H   0  0  0  0  0  0  0  0  0  0  0  0
   -1.9376   -0.8382    0.0000 H   0  0  0  0  0  0  0  0  0  0  0  0
   -2.5508    1.3457    0.0000 H   0  0  0  0  0  0  0  0  0  0  0  0
   -2.8008    0.5974    0.0000 H   0  0  0  0  0  0  0  0  0  0  0  0
   -0.4979    1.7534    0.0000 H   0  0  0  0  0  0  0  0  0  0  0  0
    2.4407    0.6948    0.0000 H   0  0  0  0  0  0  0  0  0  0  0  0
    2.6670    1.8394    0.0000 H   0  0  0  0  0  0  0  0  0  0  0  0
    1.5224    2.0657    0.0000 H   0  0  0  0  0  0  0  0  0  0  0  0
    2.0408   -0.5599    0.0000 H   0  0  0  0  0  0  0  0  0  0  0  0
    2.5662   -0.0324    0.0000 H   0  0  0  0  0  0  0  0  0  0  0  0
    1.1971    0.3538    0.0000 H   0  0  0  0  0  0  0  0  0  0  0  0
    0.6731    0.0787    0.0000 H   0  0  0  0  0  0  0  0  0  0  0  0
  2  1  1  1  0  0  0
  1 20  1  0  0  0  0
  1 21  1  0  0  0  0
  1 22  1  0  0  0  0
  2  3  1  0  0  0  0
 15  2  1  0  0  0  0
  2 23  1  6  0  0  0
  3  4  1  0  0  0  0
  3 24  1  0  0  0  0
  3 25  1  0  0  0  0
  5  4  1  0  0  0  0
  4 26  1  0  0  0  0
  4 27  1  0  0  0  0
  5  6  1  0  0  0  0
 16  5  1  0  0  0  0
  5 28  1  6  0  0  0
  6  7  1  0  0  0  0
  6 29  1  0  0  0  0
  6 30  1  0  0  0  0
  7  8  1  0  0  0  0
  7 31  1  0  0  0  0
  7 32  1  0  0  0  0
  9  8  1  0  0  0  0
  9 10  1  0  0  0  0
 16  9  1  0  0  0  0
  9 33  1  1  0  0  0
 11 10  1  0  0  0  0
 11 12  1  1  0  0  0
 11 13  1  0  0  0  0
 11 18  1  0  0  0  0
 12 34  1  0  0  0  0
 12 35  1  0  0  0  0
 12 36  1  0  0  0  0
 13 14  1  0  0  0  0
 13 37  1  0  0  0  0
 13 38  1  0  0  0  0
 15 14  1  0  0  0  0
 14 39  1  0  0  0  0
 14 40  1  0  0  0  0
 15 19  1  6  0  0  0
 16 15  1  0  0  0  0
 16 17  1  6  0  0  0
 17 18  1  0  0  0  0
M  END
