
  Mrv171c004271813302D          

 59 63  0  0  0  0            999 V2000
    2.3670   -1.3517    0.0000 C   0  0  0  0  0  0  0  0  0  0  0  0
    1.6786   -0.8971    0.0000 C   0  0  1  0  0  0  0  0  0  0  0  0
    0.9594   -1.3283    0.0000 C   0  0  0  0  0  0  0  0  0  0  0  0
    0.3959   -0.7088    0.0000 C   0  0  0  0  0  0  0  0  0  0  0  0
    0.4920    0.1462    0.0000 C   0  0  1  0  0  0  0  0  0  0  0  0
   -0.3406    0.3788    0.0000 C   0  0  1  0  0  0  0  0  0  0  0  0
   -0.9009   -0.2267    0.0000 C   0  0  0  0  0  0  0  0  0  0  0  0
   -1.7055   -0.0443    0.0000 C   0  0  0  0  0  0  0  0  0  0  0  0
   -2.2658   -0.6499    0.0000 C   0  0  0  0  0  0  0  0  0  0  0  0
   -3.0703   -0.4674    0.0000 C   0  0  0  0  0  0  0  0  0  0  0  0
   -3.6306   -1.0730    0.0000 C   0  0  0  0  0  0  0  0  0  0  0  0
   -4.4352   -0.8906    0.0000 C   0  0  0  0  0  0  0  0  0  0  0  0
   -4.6795   -0.1026    0.0000 C   0  0  0  0  0  0  0  0  0  0  0  0
   -4.1192    0.5030    0.0000 C   0  0  0  0  0  0  0  0  0  0  0  0
   -3.3146    0.3206    0.0000 C   0  0  0  0  0  0  0  0  0  0  0  0
   -0.6292    1.1689    0.0000 C   0  0  0  0  0  0  0  0  0  0  0  0
    0.0760    1.6266    0.0000 O   0  0  0  0  0  0  0  0  0  0  0  0
    0.8908    1.3559    0.0000 C   0  0  2  0  0  0  0  0  0  0  0  0
    1.8235    1.1352    0.0000 O   0  0  0  0  0  0  0  0  0  0  0  0
    2.6555    1.3482    0.0000 C   0  0  1  0  0  0  0  0  0  0  0  0
    3.3409    1.8073    0.0000 C   0  0  0  0  0  0  0  0  0  0  0  0
    3.1413    0.6504    0.0000 C   0  0  0  0  0  0  0  0  0  0  0  0
    2.6525   -0.0386    0.0000 C   0  0  0  0  0  0  0  0  0  0  0  0
    1.7950   -0.0498    0.0000 C   0  0  2  0  0  0  0  0  0  0  0  0
    1.2343    0.6456    0.0000 C   0  0  1  0  0  0  0  0  0  0  0  0
    1.4729    1.5964    0.0000 O   0  0  0  0  0  0  0  0  0  0  0  0
    2.1991    2.0568    0.0000 O   0  0  0  0  0  0  0  0  0  0  0  0
   -0.1159   -0.4150    0.0000 H   0  0  0  0  0  0  0  0  0  0  0  0
    1.0001   -0.2706    0.0000 H   0  0  0  0  0  0  0  0  0  0  0  0
    1.9124   -2.0401    0.0000 H   0  0  0  0  0  0  0  0  0  0  0  0
    3.0554   -1.8063    0.0000 H   0  0  0  0  0  0  0  0  0  0  0  0
    2.8216   -0.6633    0.0000 H   0  0  0  0  0  0  0  0  0  0  0  0
    2.4301   -0.5567    0.0000 H   0  0  0  0  0  0  0  0  0  0  0  0
    0.4615   -1.9861    0.0000 H   0  0  0  0  0  0  0  0  0  0  0  0
    1.2464   -2.1017    0.0000 H   0  0  0  0  0  0  0  0  0  0  0  0
   -0.4221   -0.6014    0.0000 H   0  0  0  0  0  0  0  0  0  0  0  0
   -0.2041   -1.2751    0.0000 H   0  0  0  0  0  0  0  0  0  0  0  0
    0.3607    0.9606    0.0000 H   0  0  0  0  0  0  0  0  0  0  0  0
   -1.2549   -0.9719    0.0000 H   0  0  0  0  0  0  0  0  0  0  0  0
   -1.1452    0.5613    0.0000 H   0  0  0  0  0  0  0  0  0  0  0  0
   -2.0829    0.6893    0.0000 H   0  0  0  0  0  0  0  0  0  0  0  0
   -2.4662    0.2751    0.0000 H   0  0  0  0  0  0  0  0  0  0  0  0
   -2.4011   -1.4637    0.0000 H   0  0  0  0  0  0  0  0  0  0  0  0
   -1.6938   -1.2444    0.0000 H   0  0  0  0  0  0  0  0  0  0  0  0
   -3.3863   -1.8610    0.0000 H   0  0  0  0  0  0  0  0  0  0  0  0
   -4.9955   -1.4962    0.0000 H   0  0  0  0  0  0  0  0  0  0  0  0
   -5.4841    0.0798    0.0000 H   0  0  0  0  0  0  0  0  0  0  0  0
   -4.3635    1.2910    0.0000 H   0  0  0  0  0  0  0  0  0  0  0  0
   -3.2009    1.1377    0.0000 H   0  0  0  0  0  0  0  0  0  0  0  0
   -0.9042    1.9468    0.0000 H   0  0  0  0  0  0  0  0  0  0  0  0
   -1.3654    1.5412    0.0000 H   0  0  0  0  0  0  0  0  0  0  0  0
    0.8615    2.1804    0.0000 H   0  0  0  0  0  0  0  0  0  0  0  0
    3.8001    1.1219    0.0000 H   0  0  0  0  0  0  0  0  0  0  0  0
    4.0264    2.2664    0.0000 H   0  0  0  0  0  0  0  0  0  0  0  0
    2.8818    2.4928    0.0000 H   0  0  0  0  0  0  0  0  0  0  0  0
    3.4002   -0.1329    0.0000 H   0  0  0  0  0  0  0  0  0  0  0  0
    3.9256    0.3947    0.0000 H   0  0  0  0  0  0  0  0  0  0  0  0
    2.5565    0.7808    0.0000 H   0  0  0  0  0  0  0  0  0  0  0  0
    2.0325    0.5057    0.0000 H   0  0  0  0  0  0  0  0  0  0  0  0
  2  1  1  1  0  0  0
  1 30  1  0  0  0  0
  1 31  1  0  0  0  0
  1 32  1  0  0  0  0
  2  3  1  0  0  0  0
 24  2  1  0  0  0  0
  2 33  1  6  0  0  0
  3  4  1  0  0  0  0
  3 34  1  0  0  0  0
  3 35  1  0  0  0  0
  5  4  1  0  0  0  0
  4 36  1  0  0  0  0
  4 37  1  0  0  0  0
  5  6  1  0  0  0  0
 25  5  1  0  0  0  0
  5 38  1  6  0  0  0
  6 28  1  6  0  0  0
  6  7  1  1  0  0  0
  6 16  1  0  0  0  0
  7  8  1  0  0  0  0
  7 39  1  0  0  0  0
  7 40  1  0  0  0  0
  8  9  1  0  0  0  0
  8 41  1  0  0  0  0
  8 42  1  0  0  0  0
  9 10  1  0  0  0  0
  9 43  1  0  0  0  0
  9 44  1  0  0  0  0
 10 11  1  0  0  0  0
 10 15  2  0  0  0  0
 11 12  2  0  0  0  0
 11 45  1  0  0  0  0
 12 13  1  0  0  0  0
 12 46  1  0  0  0  0
 13 14  2  0  0  0  0
 13 47  1  0  0  0  0
 14 15  1  0  0  0  0
 14 48  1  0  0  0  0
 15 49  1  0  0  0  0
 16 17  1  0  0  0  0
 16 50  1  0  0  0  0
 16 51  1  0  0  0  0
 18 17  1  0  0  0  0
 18 19  1  0  0  0  0
 25 18  1  0  0  0  0
 18 52  1  1  0  0  0
 20 19  1  0  0  0  0
 20 21  1  1  0  0  0
 20 22  1  0  0  0  0
 20 27  1  0  0  0  0
 21 53  1  0  0  0  0
 21 54  1  0  0  0  0
 21 55  1  0  0  0  0
 22 23  1  0  0  0  0
 22 56  1  0  0  0  0
 22 57  1  0  0  0  0
 24 23  1  0  0  0  0
 23 58  1  0  0  0  0
 23 59  1  0  0  0  0
 24 29  1  6  0  0  0
 25 24  1  0  0  0  0
 25 26  1  6  0  0  0
 26 27  1  0  0  0  0
M  END
