
  Mrv171c004271813302D          

 57 60  0  0  0  0            999 V2000
   -2.0768   -2.6709    0.0000 C   0  0  0  0  0  0  0  0  0  0  0  0
   -1.5166   -2.0654    0.0000 C   0  0  0  0  0  0  0  0  0  0  0  0
   -0.7120   -2.2478    0.0000 C   0  0  0  0  0  0  0  0  0  0  0  0
   -1.7608   -1.2774    0.0000 C   0  0  0  0  0  0  0  0  0  0  0  0
   -1.2006   -0.6718    0.0000 C   0  0  0  0  0  0  0  0  0  0  0  0
   -1.4449    0.1162    0.0000 C   0  0  0  0  0  0  0  0  0  0  0  0
   -0.8846    0.7218    0.0000 C   0  0  1  0  0  0  0  0  0  0  0  0
   -1.1731    1.5119    0.0000 C   0  0  0  0  0  0  0  0  0  0  0  0
   -1.9556    1.7734    0.0000 O   0  0  0  0  0  0  0  0  0  0  0  0
   -0.4680    1.9695    0.0000 O   0  0  0  0  0  0  0  0  0  0  0  0
    0.3468    1.6989    0.0000 C   0  0  2  0  0  0  0  0  0  0  0  0
    1.2795    1.4782    0.0000 O   0  0  0  0  0  0  0  0  0  0  0  0
    2.1115    1.6911    0.0000 C   0  0  1  0  0  0  0  0  0  0  0  0
    2.7970    2.1503    0.0000 C   0  0  0  0  0  0  0  0  0  0  0  0
    2.5973    0.9934    0.0000 C   0  0  0  0  0  0  0  0  0  0  0  0
    2.1085    0.3043    0.0000 C   0  0  0  0  0  0  0  0  0  0  0  0
    1.2510    0.2932    0.0000 C   0  0  1  0  0  0  0  0  0  0  0  0
    1.1346   -0.5541    0.0000 C   0  0  1  0  0  0  0  0  0  0  0  0
    1.8231   -1.0088    0.0000 C   0  0  0  0  0  0  0  0  0  0  0  0
    0.4154   -0.9853    0.0000 C   0  0  0  0  0  0  0  0  0  0  0  0
   -0.1481   -0.3658    0.0000 C   0  0  0  0  0  0  0  0  0  0  0  0
   -0.0520    0.4891    0.0000 C   0  0  2  0  0  0  0  0  0  0  0  0
    0.6904    0.9886    0.0000 C   0  0  1  0  0  0  0  0  0  0  0  0
    0.9290    1.9394    0.0000 O   0  0  0  0  0  0  0  0  0  0  0  0
    1.6551    2.3998    0.0000 O   0  0  0  0  0  0  0  0  0  0  0  0
   -0.6599   -0.0720    0.0000 H   0  0  0  0  0  0  0  0  0  0  0  0
    1.6022    1.0397    0.0000 H   0  0  0  0  0  0  0  0  0  0  0  0
   -2.6824   -2.1106    0.0000 H   0  0  0  0  0  0  0  0  0  0  0  0
   -2.6371   -3.2765    0.0000 H   0  0  0  0  0  0  0  0  0  0  0  0
   -1.4713   -3.2312    0.0000 H   0  0  0  0  0  0  0  0  0  0  0  0
   -1.2723   -2.8534    0.0000 H   0  0  0  0  0  0  0  0  0  0  0  0
   -0.2721   -2.9457    0.0000 H   0  0  0  0  0  0  0  0  0  0  0  0
    0.0760   -2.0035    0.0000 H   0  0  0  0  0  0  0  0  0  0  0  0
   -0.7440   -1.4234    0.0000 H   0  0  0  0  0  0  0  0  0  0  0  0
   -2.3980   -0.7532    0.0000 H   0  0  0  0  0  0  0  0  0  0  0  0
   -2.5617   -1.4754    0.0000 H   0  0  0  0  0  0  0  0  0  0  0  0
   -0.4484   -0.3329    0.0000 H   0  0  0  0  0  0  0  0  0  0  0  0
   -2.0051   -0.4894    0.0000 H   0  0  0  0  0  0  0  0  0  0  0  0
   -1.8223    0.8498    0.0000 H   0  0  0  0  0  0  0  0  0  0  0  0
   -2.2055    0.4356    0.0000 H   0  0  0  0  0  0  0  0  0  0  0  0
    0.3175    2.5234    0.0000 H   0  0  0  0  0  0  0  0  0  0  0  0
    3.2561    1.4648    0.0000 H   0  0  0  0  0  0  0  0  0  0  0  0
    3.4824    2.6094    0.0000 H   0  0  0  0  0  0  0  0  0  0  0  0
    2.3379    2.8357    0.0000 H   0  0  0  0  0  0  0  0  0  0  0  0
    2.8563    0.2101    0.0000 H   0  0  0  0  0  0  0  0  0  0  0  0
    3.3817    0.7376    0.0000 H   0  0  0  0  0  0  0  0  0  0  0  0
    1.6726   -0.3961    0.0000 H   0  0  0  0  0  0  0  0  0  0  0  0
    2.4631   -0.4405    0.0000 H   0  0  0  0  0  0  0  0  0  0  0  0
    0.4462   -0.0995    0.0000 H   0  0  0  0  0  0  0  0  0  0  0  0
    1.1109   -1.4252    0.0000 H   0  0  0  0  0  0  0  0  0  0  0  0
    1.8817   -1.8317    0.0000 H   0  0  0  0  0  0  0  0  0  0  0  0
    2.5871   -1.3200    0.0000 H   0  0  0  0  0  0  0  0  0  0  0  0
   -0.3111   -1.3761    0.0000 H   0  0  0  0  0  0  0  0  0  0  0  0
    0.1564   -1.7686    0.0000 H   0  0  0  0  0  0  0  0  0  0  0  0
   -0.7807   -0.8954    0.0000 H   0  0  0  0  0  0  0  0  0  0  0  0
   -0.2040   -1.1889    0.0000 H   0  0  0  0  0  0  0  0  0  0  0  0
   -0.1833    1.3036    0.0000 H   0  0  0  0  0  0  0  0  0  0  0  0
  1  2  1  0  0  0  0
  1 28  1  0  0  0  0
  1 29  1  0  0  0  0
  1 30  1  0  0  0  0
  2  3  1  0  0  0  0
  2  4  1  0  0  0  0
  2 31  1  0  0  0  0
  3 32  1  0  0  0  0
  3 33  1  0  0  0  0
  3 34  1  0  0  0  0
  4  5  1  0  0  0  0
  4 35  1  0  0  0  0
  4 36  1  0  0  0  0
  5  6  1  0  0  0  0
  5 37  1  0  0  0  0
  5 38  1  0  0  0  0
  7  6  1  1  0  0  0
  6 39  1  0  0  0  0
  6 40  1  0  0  0  0
  7 26  1  6  0  0  0
  7  8  1  0  0  0  0
 22  7  1  0  0  0  0
  8  9  2  0  0  0  0
  8 10  1  0  0  0  0
 11 10  1  0  0  0  0
 11 12  1  0  0  0  0
 23 11  1  0  0  0  0
 11 41  1  1  0  0  0
 13 12  1  0  0  0  0
 13 14  1  1  0  0  0
 13 15  1  0  0  0  0
 13 25  1  0  0  0  0
 14 42  1  0  0  0  0
 14 43  1  0  0  0  0
 14 44  1  0  0  0  0
 15 16  1  0  0  0  0
 15 45  1  0  0  0  0
 15 46  1  0  0  0  0
 17 16  1  0  0  0  0
 16 47  1  0  0  0  0
 16 48  1  0  0  0  0
 17 27  1  6  0  0  0
 17 18  1  0  0  0  0
 23 17  1  0  0  0  0
 18 19  1  0  0  0  0
 18 20  1  1  0  0  0
 18 49  1  6  0  0  0
 19 50  1  0  0  0  0
 19 51  1  0  0  0  0
 19 52  1  0  0  0  0
 20 21  1  0  0  0  0
 20 53  1  0  0  0  0
 20 54  1  0  0  0  0
 22 21  1  0  0  0  0
 21 55  1  0  0  0  0
 21 56  1  0  0  0  0
 23 22  1  0  0  0  0
 22 57  1  6  0  0  0
 23 24  1  6  0  0  0
 24 25  1  0  0  0  0
M  END
