
  Mrv171c004271813302D          

 51 55  0  0  0  0            999 V2000
    1.0702   -1.8635    0.0000 C   0  0  0  0  0  0  0  0  0  0  0  0
    0.3817   -1.4088    0.0000 C   0  0  1  0  0  0  0  0  0  0  0  0
   -0.3375   -1.8400    0.0000 C   0  0  0  0  0  0  0  0  0  0  0  0
   -0.9010   -1.2205    0.0000 C   0  0  0  0  0  0  0  0  0  0  0  0
   -0.8049   -0.3656    0.0000 C   0  0  1  0  0  0  0  0  0  0  0  0
   -1.6375   -0.1329    0.0000 C   0  0  2  0  0  0  0  0  0  0  0  0
   -1.6910   -0.9562    0.0000 C   0  0  0  0  0  0  0  0  0  0  0  0
   -2.4541   -0.2502    0.0000 Br  0  0  0  0  0  0  0  0  0  0  0  0
   -1.9260    0.6572    0.0000 C   0  0  1  0  0  0  0  0  0  0  0  0
   -2.7085    0.9187    0.0000 N   0  0  0  0  0  0  0  0  0  0  0  0
   -2.8733    1.7270    0.0000 C   0  0  0  0  0  0  0  0  0  0  0  0
   -3.6242    2.0689    0.0000 N   0  0  0  0  0  0  0  0  0  0  0  0
   -3.5311    2.8886    0.0000 C   0  0  0  0  0  0  0  0  0  0  0  0
   -2.7227    3.0534    0.0000 C   0  0  0  0  0  0  0  0  0  0  0  0
   -2.3162    2.3355    0.0000 S   0  0  0  0  0  0  0  0  0  0  0  0
   -1.2209    1.1148    0.0000 O   0  0  0  0  0  0  0  0  0  0  0  0
   -0.4061    0.8442    0.0000 C   0  0  2  0  0  0  0  0  0  0  0  0
    0.5266    0.6235    0.0000 O   0  0  0  0  0  0  0  0  0  0  0  0
    1.3586    0.8364    0.0000 C   0  0  1  0  0  0  0  0  0  0  0  0
    2.0441    1.2956    0.0000 C   0  0  0  0  0  0  0  0  0  0  0  0
    1.8444    0.1387    0.0000 C   0  0  0  0  0  0  0  0  0  0  0  0
    1.3556   -0.5504    0.0000 C   0  0  0  0  0  0  0  0  0  0  0  0
    0.4982   -0.5615    0.0000 C   0  0  2  0  0  0  0  0  0  0  0  0
   -0.0625    0.1339    0.0000 C   0  0  1  0  0  0  0  0  0  0  0  0
    0.1761    1.0847    0.0000 O   0  0  0  0  0  0  0  0  0  0  0  0
    0.9022    1.5451    0.0000 O   0  0  0  0  0  0  0  0  0  0  0  0
   -0.3170   -0.4344    0.0000 H   0  0  0  0  0  0  0  0  0  0  0  0
    0.6155   -2.5519    0.0000 H   0  0  0  0  0  0  0  0  0  0  0  0
    1.7586   -2.3181    0.0000 H   0  0  0  0  0  0  0  0  0  0  0  0
    1.5248   -1.1750    0.0000 H   0  0  0  0  0  0  0  0  0  0  0  0
    1.1332   -1.0684    0.0000 H   0  0  0  0  0  0  0  0  0  0  0  0
   -0.8354   -2.4978    0.0000 H   0  0  0  0  0  0  0  0  0  0  0  0
   -0.0505   -2.6135    0.0000 H   0  0  0  0  0  0  0  0  0  0  0  0
   -1.3516   -1.9116    0.0000 H   0  0  0  0  0  0  0  0  0  0  0  0
   -0.1161   -0.9664    0.0000 H   0  0  0  0  0  0  0  0  0  0  0  0
   -0.9362    0.4489    0.0000 H   0  0  0  0  0  0  0  0  0  0  0  0
   -2.4061   -0.5447    0.0000 H   0  0  0  0  0  0  0  0  0  0  0  0
   -2.3759   -1.4162    0.0000 H   0  0  0  0  0  0  0  0  0  0  0  0
   -1.5806   -1.7737    0.0000 H   0  0  0  0  0  0  0  0  0  0  0  0
   -2.0302    1.4756    0.0000 H   0  0  0  0  0  0  0  0  0  0  0  0
   -3.3262    0.3718    0.0000 H   0  0  0  0  0  0  0  0  0  0  0  0
   -4.1396    3.4457    0.0000 H   0  0  0  0  0  0  0  0  0  0  0  0
   -2.3809    3.8042    0.0000 H   0  0  0  0  0  0  0  0  0  0  0  0
   -0.4354    1.6687    0.0000 H   0  0  0  0  0  0  0  0  0  0  0  0
    2.5032    0.6101    0.0000 H   0  0  0  0  0  0  0  0  0  0  0  0
    2.7295    1.7547    0.0000 H   0  0  0  0  0  0  0  0  0  0  0  0
    1.5850    1.9810    0.0000 H   0  0  0  0  0  0  0  0  0  0  0  0
    2.1034   -0.6446    0.0000 H   0  0  0  0  0  0  0  0  0  0  0  0
    2.6288   -0.1171    0.0000 H   0  0  0  0  0  0  0  0  0  0  0  0
    1.2596    0.2690    0.0000 H   0  0  0  0  0  0  0  0  0  0  0  0
    0.7357   -0.0060    0.0000 H   0  0  0  0  0  0  0  0  0  0  0  0
  2  1  1  1  0  0  0
  1 28  1  0  0  0  0
  1 29  1  0  0  0  0
  1 30  1  0  0  0  0
  2  3  1  0  0  0  0
 23  2  1  0  0  0  0
  2 31  1  6  0  0  0
  3  4  1  0  0  0  0
  3 32  1  0  0  0  0
  3 33  1  0  0  0  0
  5  4  1  0  0  0  0
  4 34  1  0  0  0  0
  4 35  1  0  0  0  0
  5  6  1  0  0  0  0
 24  5  1  0  0  0  0
  5 36  1  6  0  0  0
  6  7  1  1  0  0  0
  6  8  1  6  0  0  0
  6  9  1  0  0  0  0
  7 37  1  0  0  0  0
  7 38  1  0  0  0  0
  7 39  1  0  0  0  0
  9 10  1  1  0  0  0
  9 16  1  0  0  0  0
  9 40  1  6  0  0  0
 10 11  1  0  0  0  0
 10 41  1  0  0  0  0
 11 12  2  0  0  0  0
 11 15  1  0  0  0  0
 12 13  1  0  0  0  0
 13 14  2  0  0  0  0
 13 42  1  0  0  0  0
 14 15  1  0  0  0  0
 14 43  1  0  0  0  0
 17 16  1  0  0  0  0
 17 18  1  0  0  0  0
 24 17  1  0  0  0  0
 17 44  1  1  0  0  0
 19 18  1  0  0  0  0
 19 20  1  1  0  0  0
 19 21  1  0  0  0  0
 19 26  1  0  0  0  0
 20 45  1  0  0  0  0
 20 46  1  0  0  0  0
 20 47  1  0  0  0  0
 21 22  1  0  0  0  0
 21 48  1  0  0  0  0
 21 49  1  0  0  0  0
 23 22  1  0  0  0  0
 22 50  1  0  0  0  0
 22 51  1  0  0  0  0
 23 27  1  6  0  0  0
 24 23  1  0  0  0  0
 24 25  1  6  0  0  0
 25 26  1  0  0  0  0
M  END
