
  Mrv171c004271813302D          

 54 58  0  0  0  0            999 V2000
    1.3894   -1.9468    0.0000 C   0  0  0  0  0  0  0  0  0  0  0  0
    0.7009   -1.4922    0.0000 C   0  0  1  0  0  0  0  0  0  0  0  0
   -0.0183   -1.9233    0.0000 C   0  0  0  0  0  0  0  0  0  0  0  0
   -0.5818   -1.3038    0.0000 C   0  0  0  0  0  0  0  0  0  0  0  0
   -0.4856   -0.4489    0.0000 C   0  0  1  0  0  0  0  0  0  0  0  0
   -1.3183   -0.2162    0.0000 C   0  0  2  0  0  0  0  0  0  0  0  0
   -1.3718   -1.0395    0.0000 C   0  0  0  0  0  0  0  0  0  0  0  0
   -2.1349   -0.3335    0.0000 Br  0  0  0  0  0  0  0  0  0  0  0  0
   -1.6068    0.5739    0.0000 C   0  0  1  0  0  0  0  0  0  0  0  0
   -2.3893    0.8353    0.0000 N   0  0  0  0  0  0  0  0  0  0  0  0
   -2.5541    1.6437    0.0000 C   0  0  0  0  0  0  0  0  0  0  0  0
   -3.3366    1.9052    0.0000 C   0  0  0  0  0  0  0  0  0  0  0  0
   -3.5014    2.7135    0.0000 C   0  0  0  0  0  0  0  0  0  0  0  0
   -2.8837    3.2604    0.0000 C   0  0  0  0  0  0  0  0  0  0  0  0
   -2.1012    2.9990    0.0000 C   0  0  0  0  0  0  0  0  0  0  0  0
   -1.9364    2.1906    0.0000 N   0  0  0  0  0  0  0  0  0  0  0  0
   -0.9017    1.0315    0.0000 O   0  0  0  0  0  0  0  0  0  0  0  0
   -0.0868    0.7609    0.0000 C   0  0  2  0  0  0  0  0  0  0  0  0
    0.8458    0.5402    0.0000 O   0  0  0  0  0  0  0  0  0  0  0  0
    1.6779    0.7531    0.0000 C   0  0  1  0  0  0  0  0  0  0  0  0
    2.3633    1.2122    0.0000 C   0  0  0  0  0  0  0  0  0  0  0  0
    2.1636    0.0553    0.0000 C   0  0  0  0  0  0  0  0  0  0  0  0
    1.6748   -0.6337    0.0000 C   0  0  0  0  0  0  0  0  0  0  0  0
    0.8174   -0.6449    0.0000 C   0  0  2  0  0  0  0  0  0  0  0  0
    0.2567    0.0505    0.0000 C   0  0  1  0  0  0  0  0  0  0  0  0
    0.4953    1.0014    0.0000 O   0  0  0  0  0  0  0  0  0  0  0  0
    1.2215    1.4617    0.0000 O   0  0  0  0  0  0  0  0  0  0  0  0
    0.0022   -0.5177    0.0000 H   0  0  0  0  0  0  0  0  0  0  0  0
    0.9347   -2.6352    0.0000 H   0  0  0  0  0  0  0  0  0  0  0  0
    2.0778   -2.4014    0.0000 H   0  0  0  0  0  0  0  0  0  0  0  0
    1.8440   -1.2584    0.0000 H   0  0  0  0  0  0  0  0  0  0  0  0
    1.4524   -1.1518    0.0000 H   0  0  0  0  0  0  0  0  0  0  0  0
   -0.5162   -2.5812    0.0000 H   0  0  0  0  0  0  0  0  0  0  0  0
    0.2687   -2.6968    0.0000 H   0  0  0  0  0  0  0  0  0  0  0  0
   -1.0324   -1.9949    0.0000 H   0  0  0  0  0  0  0  0  0  0  0  0
    0.2031   -1.0498    0.0000 H   0  0  0  0  0  0  0  0  0  0  0  0
   -0.6170    0.3656    0.0000 H   0  0  0  0  0  0  0  0  0  0  0  0
   -2.0869   -0.6281    0.0000 H   0  0  0  0  0  0  0  0  0  0  0  0
   -2.0567   -1.4995    0.0000 H   0  0  0  0  0  0  0  0  0  0  0  0
   -1.2613   -1.8571    0.0000 H   0  0  0  0  0  0  0  0  0  0  0  0
   -1.7110    1.3923    0.0000 H   0  0  0  0  0  0  0  0  0  0  0  0
   -3.0070    0.2884    0.0000 H   0  0  0  0  0  0  0  0  0  0  0  0
   -3.9542    1.3583    0.0000 H   0  0  0  0  0  0  0  0  0  0  0  0
   -4.2838    2.9750    0.0000 H   0  0  0  0  0  0  0  0  0  0  0  0
   -3.0485    4.0688    0.0000 H   0  0  0  0  0  0  0  0  0  0  0  0
   -1.4835    3.5459    0.0000 H   0  0  0  0  0  0  0  0  0  0  0  0
   -0.1162    1.5853    0.0000 H   0  0  0  0  0  0  0  0  0  0  0  0
    2.8224    0.5268    0.0000 H   0  0  0  0  0  0  0  0  0  0  0  0
    3.0488    1.6713    0.0000 H   0  0  0  0  0  0  0  0  0  0  0  0
    1.9042    1.8977    0.0000 H   0  0  0  0  0  0  0  0  0  0  0  0
    2.4226   -0.7280    0.0000 H   0  0  0  0  0  0  0  0  0  0  0  0
    2.9480   -0.2004    0.0000 H   0  0  0  0  0  0  0  0  0  0  0  0
    1.5788    0.1857    0.0000 H   0  0  0  0  0  0  0  0  0  0  0  0
    1.0549   -0.0893    0.0000 H   0  0  0  0  0  0  0  0  0  0  0  0
  2  1  1  1  0  0  0
  1 29  1  0  0  0  0
  1 30  1  0  0  0  0
  1 31  1  0  0  0  0
  2  3  1  0  0  0  0
 24  2  1  0  0  0  0
  2 32  1  6  0  0  0
  3  4  1  0  0  0  0
  3 33  1  0  0  0  0
  3 34  1  0  0  0  0
  5  4  1  0  0  0  0
  4 35  1  0  0  0  0
  4 36  1  0  0  0  0
  5  6  1  0  0  0  0
 25  5  1  0  0  0  0
  5 37  1  6  0  0  0
  6  7  1  1  0  0  0
  6  8  1  6  0  0  0
  6  9  1  0  0  0  0
  7 38  1  0  0  0  0
  7 39  1  0  0  0  0
  7 40  1  0  0  0  0
  9 10  1  1  0  0  0
  9 17  1  0  0  0  0
  9 41  1  6  0  0  0
 10 11  1  0  0  0  0
 10 42  1  0  0  0  0
 11 12  1  0  0  0  0
 11 16  2  0  0  0  0
 12 13  2  0  0  0  0
 12 43  1  0  0  0  0
 13 14  1  0  0  0  0
 13 44  1  0  0  0  0
 14 15  2  0  0  0  0
 14 45  1  0  0  0  0
 15 16  1  0  0  0  0
 15 46  1  0  0  0  0
 18 17  1  0  0  0  0
 18 19  1  0  0  0  0
 25 18  1  0  0  0  0
 18 47  1  1  0  0  0
 20 19  1  0  0  0  0
 20 21  1  1  0  0  0
 20 22  1  0  0  0  0
 20 27  1  0  0  0  0
 21 48  1  0  0  0  0
 21 49  1  0  0  0  0
 21 50  1  0  0  0  0
 22 23  1  0  0  0  0
 22 51  1  0  0  0  0
 22 52  1  0  0  0  0
 24 23  1  0  0  0  0
 23 53  1  0  0  0  0
 23 54  1  0  0  0  0
 24 28  1  6  0  0  0
 25 24  1  0  0  0  0
 25 26  1  6  0  0  0
 26 27  1  0  0  0  0
M  END
