
  Mrv171c004271813302D          

 55 59  0  0  0  0            999 V2000
    0.0960   -2.1526    0.0000 C   0  0  0  0  0  0  0  0  0  0  0  0
   -0.5924   -1.6979    0.0000 C   0  0  1  0  0  0  0  0  0  0  0  0
   -1.3116   -2.1291    0.0000 C   0  0  0  0  0  0  0  0  0  0  0  0
   -1.8751   -1.5096    0.0000 C   0  0  0  0  0  0  0  0  0  0  0  0
   -1.7790   -0.6547    0.0000 C   0  0  1  0  0  0  0  0  0  0  0  0
   -2.6116   -0.4220    0.0000 C   0  0  0  0  0  0  0  0  0  0  0  0
   -2.9002    0.3681    0.0000 C   0  0  0  0  0  0  0  0  0  0  0  0
   -3.6826    0.6296    0.0000 O   0  0  0  0  0  0  0  0  0  0  0  0
   -2.1950    0.8257    0.0000 O   0  0  0  0  0  0  0  0  0  0  0  0
   -1.3802    0.5551    0.0000 C   0  0  2  0  0  0  0  0  0  0  0  0
   -0.4475    0.3344    0.0000 O   0  0  0  0  0  0  0  0  0  0  0  0
    0.3845    0.5473    0.0000 C   0  0  1  0  0  0  0  0  0  0  0  0
    1.0700    1.0065    0.0000 C   0  0  0  0  0  0  0  0  0  0  0  0
    1.8103    0.6424    0.0000 C   0  0  0  0  0  0  0  0  0  0  0  0
    2.4957    1.1015    0.0000 C   0  0  0  0  0  0  0  0  0  0  0  0
    3.2361    0.7375    0.0000 C   0  0  0  0  0  0  0  0  0  0  0  0
    3.9215    1.1966    0.0000 C   0  0  0  0  0  0  0  0  0  0  0  0
    4.6619    0.8325    0.0000 C   0  0  0  0  0  0  0  0  0  0  0  0
    4.7167    0.0093    0.0000 C   0  0  0  0  0  0  0  0  0  0  0  0
    5.4571   -0.3547    0.0000 Cl  0  0  0  0  0  0  0  0  0  0  0  0
    4.0313   -0.4498    0.0000 C   0  0  0  0  0  0  0  0  0  0  0  0
    3.2910   -0.0857    0.0000 C   0  0  0  0  0  0  0  0  0  0  0  0
    0.8703   -0.1504    0.0000 C   0  0  0  0  0  0  0  0  0  0  0  0
    0.3815   -0.8395    0.0000 C   0  0  0  0  0  0  0  0  0  0  0  0
   -0.4760   -0.8506    0.0000 C   0  0  2  0  0  0  0  0  0  0  0  0
   -1.0366   -0.1552    0.0000 C   0  0  1  0  0  0  0  0  0  0  0  0
   -0.7981    0.7956    0.0000 O   0  0  0  0  0  0  0  0  0  0  0  0
   -0.0719    1.2560    0.0000 O   0  0  0  0  0  0  0  0  0  0  0  0
   -1.2709   -1.0715    0.0000 H   0  0  0  0  0  0  0  0  0  0  0  0
   -0.3586   -2.8410    0.0000 H   0  0  0  0  0  0  0  0  0  0  0  0
    0.7845   -2.6072    0.0000 H   0  0  0  0  0  0  0  0  0  0  0  0
    0.5507   -1.4641    0.0000 H   0  0  0  0  0  0  0  0  0  0  0  0
    0.1591   -1.3575    0.0000 H   0  0  0  0  0  0  0  0  0  0  0  0
   -1.8095   -2.7869    0.0000 H   0  0  0  0  0  0  0  0  0  0  0  0
   -1.0246   -2.9026    0.0000 H   0  0  0  0  0  0  0  0  0  0  0  0
   -2.6931   -1.4023    0.0000 H   0  0  0  0  0  0  0  0  0  0  0  0
   -2.4751   -2.0759    0.0000 H   0  0  0  0  0  0  0  0  0  0  0  0
   -1.9103    0.1598    0.0000 H   0  0  0  0  0  0  0  0  0  0  0  0
   -3.3808   -0.7202    0.0000 H   0  0  0  0  0  0  0  0  0  0  0  0
   -2.8492   -1.2121    0.0000 H   0  0  0  0  0  0  0  0  0  0  0  0
   -1.4095    1.3796    0.0000 H   0  0  0  0  0  0  0  0  0  0  0  0
    1.3904    1.7667    0.0000 H   0  0  0  0  0  0  0  0  0  0  0  0
    0.6515    1.7174    0.0000 H   0  0  0  0  0  0  0  0  0  0  0  0
    1.4899   -0.1178    0.0000 H   0  0  0  0  0  0  0  0  0  0  0  0
    2.2288   -0.0686    0.0000 H   0  0  0  0  0  0  0  0  0  0  0  0
    2.8161    1.8618    0.0000 H   0  0  0  0  0  0  0  0  0  0  0  0
    2.0773    1.8125    0.0000 H   0  0  0  0  0  0  0  0  0  0  0  0
    3.8666    2.0197    0.0000 H   0  0  0  0  0  0  0  0  0  0  0  0
    5.3473    1.2916    0.0000 H   0  0  0  0  0  0  0  0  0  0  0  0
    4.0862   -1.2730    0.0000 H   0  0  0  0  0  0  0  0  0  0  0  0
    2.6055   -0.5448    0.0000 H   0  0  0  0  0  0  0  0  0  0  0  0
    1.2681   -0.8732    0.0000 H   0  0  0  0  0  0  0  0  0  0  0  0
    1.2329    0.5906    0.0000 H   0  0  0  0  0  0  0  0  0  0  0  0
    0.2855   -0.0201    0.0000 H   0  0  0  0  0  0  0  0  0  0  0  0
   -0.2384   -0.2951    0.0000 H   0  0  0  0  0  0  0  0  0  0  0  0
  2  1  1  1  0  0  0
  1 30  1  0  0  0  0
  1 31  1  0  0  0  0
  1 32  1  0  0  0  0
  2  3  1  0  0  0  0
 25  2  1  0  0  0  0
  2 33  1  6  0  0  0
  3  4  1  0  0  0  0
  3 34  1  0  0  0  0
  3 35  1  0  0  0  0
  5  4  1  0  0  0  0
  4 36  1  0  0  0  0
  4 37  1  0  0  0  0
  5  6  1  0  0  0  0
 26  5  1  0  0  0  0
  5 38  1  6  0  0  0
  6  7  1  0  0  0  0
  6 39  1  0  0  0  0
  6 40  1  0  0  0  0
  7  8  2  0  0  0  0
  7  9  1  0  0  0  0
 10  9  1  0  0  0  0
 10 11  1  0  0  0  0
 26 10  1  0  0  0  0
 10 41  1  1  0  0  0
 12 11  1  0  0  0  0
 12 13  1  1  0  0  0
 12 23  1  0  0  0  0
 12 28  1  0  0  0  0
 13 14  1  0  0  0  0
 13 42  1  0  0  0  0
 13 43  1  0  0  0  0
 14 15  1  0  0  0  0
 14 44  1  0  0  0  0
 14 45  1  0  0  0  0
 15 16  1  0  0  0  0
 15 46  1  0  0  0  0
 15 47  1  0  0  0  0
 16 17  1  0  0  0  0
 16 22  2  0  0  0  0
 17 18  2  0  0  0  0
 17 48  1  0  0  0  0
 18 19  1  0  0  0  0
 18 49  1  0  0  0  0
 19 20  1  0  0  0  0
 19 21  2  0  0  0  0
 21 22  1  0  0  0  0
 21 50  1  0  0  0  0
 22 51  1  0  0  0  0
 23 24  1  0  0  0  0
 23 52  1  0  0  0  0
 23 53  1  0  0  0  0
 25 24  1  0  0  0  0
 24 54  1  0  0  0  0
 24 55  1  0  0  0  0
 25 29  1  6  0  0  0
 26 25  1  0  0  0  0
 26 27  1  6  0  0  0
 27 28  1  0  0  0  0
M  END
