
  Mrv171c004271813302D          

 70 74  0  0  0  0            999 V2000
   -2.7864   -3.4116    0.0000 C   0  0  0  0  0  0  0  0  0  0  0  0
   -3.0307   -2.6236    0.0000 C   0  0  0  0  0  0  0  0  0  0  0  0
   -2.4704   -2.0180    0.0000 C   0  0  0  0  0  0  0  0  0  0  0  0
   -2.7147   -1.2300    0.0000 C   0  0  0  0  0  0  0  0  0  0  0  0
   -2.1544   -0.6244    0.0000 C   0  0  1  0  0  0  0  0  0  0  0  0
   -2.4430    0.1657    0.0000 C   0  0  0  0  0  0  0  0  0  0  0  0
   -3.2255    0.4272    0.0000 O   0  0  0  0  0  0  0  0  0  0  0  0
   -1.7379    0.6233    0.0000 O   0  0  0  0  0  0  0  0  0  0  0  0
   -0.9230    0.3527    0.0000 C   0  0  2  0  0  0  0  0  0  0  0  0
    0.0097    0.1320    0.0000 O   0  0  0  0  0  0  0  0  0  0  0  0
    0.8417    0.3449    0.0000 C   0  0  1  0  0  0  0  0  0  0  0  0
    1.5271    0.8041    0.0000 C   0  0  0  0  0  0  0  0  0  0  0  0
    1.4722    1.6272    0.0000 C   0  0  0  0  0  0  0  0  0  0  0  0
    2.1577    2.0863    0.0000 C   0  0  0  0  0  0  0  0  0  0  0  0
    2.1028    2.9095    0.0000 C   0  0  0  0  0  0  0  0  0  0  0  0
    2.7883    3.3686    0.0000 C   0  0  0  0  0  0  0  0  0  0  0  0
    2.7334    4.1918    0.0000 C   0  0  0  0  0  0  0  0  0  0  0  0
    3.4188    4.6509    0.0000 C   0  0  0  0  0  0  0  0  0  0  0  0
    4.1592    4.2869    0.0000 C   0  0  0  0  0  0  0  0  0  0  0  0
    4.2140    3.4637    0.0000 C   0  0  0  0  0  0  0  0  0  0  0  0
    3.5286    3.0046    0.0000 C   0  0  0  0  0  0  0  0  0  0  0  0
    1.3274   -0.3528    0.0000 C   0  0  0  0  0  0  0  0  0  0  0  0
    0.8386   -1.0419    0.0000 C   0  0  0  0  0  0  0  0  0  0  0  0
   -0.0188   -1.0530    0.0000 C   0  0  1  0  0  0  0  0  0  0  0  0
   -0.1352   -1.9003    0.0000 C   0  0  1  0  0  0  0  0  0  0  0  0
    0.5532   -2.3550    0.0000 C   0  0  0  0  0  0  0  0  0  0  0  0
   -0.8544   -2.3315    0.0000 C   0  0  0  0  0  0  0  0  0  0  0  0
   -1.4180   -1.7120    0.0000 C   0  0  0  0  0  0  0  0  0  0  0  0
   -1.3218   -0.8571    0.0000 C   0  0  2  0  0  0  0  0  0  0  0  0
   -0.5795   -0.3576    0.0000 C   0  0  1  0  0  0  0  0  0  0  0  0
   -0.3409    0.5932    0.0000 O   0  0  0  0  0  0  0  0  0  0  0  0
    0.3853    1.0536    0.0000 O   0  0  0  0  0  0  0  0  0  0  0  0
   -1.9297   -1.4182    0.0000 H   0  0  0  0  0  0  0  0  0  0  0  0
    0.3323   -0.3065    0.0000 H   0  0  0  0  0  0  0  0  0  0  0  0
   -3.5744   -3.6558    0.0000 H   0  0  0  0  0  0  0  0  0  0  0  0
   -2.5421   -4.1995    0.0000 H   0  0  0  0  0  0  0  0  0  0  0  0
   -1.9984   -3.1673    0.0000 H   0  0  0  0  0  0  0  0  0  0  0  0
   -3.6678   -2.0994    0.0000 H   0  0  0  0  0  0  0  0  0  0  0  0
   -3.8316   -2.8216    0.0000 H   0  0  0  0  0  0  0  0  0  0  0  0
   -1.8333   -2.5421    0.0000 H   0  0  0  0  0  0  0  0  0  0  0  0
   -1.6696   -1.8199    0.0000 H   0  0  0  0  0  0  0  0  0  0  0  0
   -3.3518   -0.7059    0.0000 H   0  0  0  0  0  0  0  0  0  0  0  0
   -3.5156   -1.4280    0.0000 H   0  0  0  0  0  0  0  0  0  0  0  0
   -0.9524    1.1772    0.0000 H   0  0  0  0  0  0  0  0  0  0  0  0
    2.0253    0.1465    0.0000 H   0  0  0  0  0  0  0  0  0  0  0  0
    2.3521    0.8110    0.0000 H   0  0  0  0  0  0  0  0  0  0  0  0
    0.9741    2.2848    0.0000 H   0  0  0  0  0  0  0  0  0  0  0  0
    0.6473    1.6203    0.0000 H   0  0  0  0  0  0  0  0  0  0  0  0
    2.6559    1.4288    0.0000 H   0  0  0  0  0  0  0  0  0  0  0  0
    2.9827    2.0933    0.0000 H   0  0  0  0  0  0  0  0  0  0  0  0
    1.6046    3.5671    0.0000 H   0  0  0  0  0  0  0  0  0  0  0  0
    1.2778    2.9026    0.0000 H   0  0  0  0  0  0  0  0  0  0  0  0
    1.9931    4.5559    0.0000 H   0  0  0  0  0  0  0  0  0  0  0  0
    3.3640    5.4741    0.0000 H   0  0  0  0  0  0  0  0  0  0  0  0
    4.8446    4.7460    0.0000 H   0  0  0  0  0  0  0  0  0  0  0  0
    4.9544    3.0996    0.0000 H   0  0  0  0  0  0  0  0  0  0  0  0
    3.5835    2.1814    0.0000 H   0  0  0  0  0  0  0  0  0  0  0  0
    1.5864   -1.1361    0.0000 H   0  0  0  0  0  0  0  0  0  0  0  0
    2.1118   -0.6086    0.0000 H   0  0  0  0  0  0  0  0  0  0  0  0
    0.4027   -1.7423    0.0000 H   0  0  0  0  0  0  0  0  0  0  0  0
    1.1933   -1.7867    0.0000 H   0  0  0  0  0  0  0  0  0  0  0  0
   -0.8237   -1.4457    0.0000 H   0  0  0  0  0  0  0  0  0  0  0  0
   -0.1590   -2.7714    0.0000 H   0  0  0  0  0  0  0  0  0  0  0  0
    0.6119   -3.1779    0.0000 H   0  0  0  0  0  0  0  0  0  0  0  0
    1.3172   -2.6662    0.0000 H   0  0  0  0  0  0  0  0  0  0  0  0
   -1.5841   -2.7165    0.0000 H   0  0  0  0  0  0  0  0  0  0  0  0
   -0.8868   -3.1559    0.0000 H   0  0  0  0  0  0  0  0  0  0  0  0
   -1.7907   -0.9760    0.0000 H   0  0  0  0  0  0  0  0  0  0  0  0
   -0.6104   -1.8805    0.0000 H   0  0  0  0  0  0  0  0  0  0  0  0
   -1.4532   -0.0426    0.0000 H   0  0  0  0  0  0  0  0  0  0  0  0
  1  2  1  0  0  0  0
  1 35  1  0  0  0  0
  1 36  1  0  0  0  0
  1 37  1  0  0  0  0
  2  3  1  0  0  0  0
  2 38  1  0  0  0  0
  2 39  1  0  0  0  0
  3  4  1  0  0  0  0
  3 40  1  0  0  0  0
  3 41  1  0  0  0  0
  5  4  1  1  0  0  0
  4 42  1  0  0  0  0
  4 43  1  0  0  0  0
  5 33  1  6  0  0  0
  5  6  1  0  0  0  0
 29  5  1  0  0  0  0
  6  7  2  0  0  0  0
  6  8  1  0  0  0  0
  9  8  1  0  0  0  0
  9 10  1  0  0  0  0
 30  9  1  0  0  0  0
  9 44  1  1  0  0  0
 11 10  1  0  0  0  0
 11 12  1  1  0  0  0
 11 22  1  0  0  0  0
 11 32  1  0  0  0  0
 12 13  1  0  0  0  0
 12 45  1  0  0  0  0
 12 46  1  0  0  0  0
 13 14  1  0  0  0  0
 13 47  1  0  0  0  0
 13 48  1  0  0  0  0
 14 15  1  0  0  0  0
 14 49  1  0  0  0  0
 14 50  1  0  0  0  0
 15 16  1  0  0  0  0
 15 51  1  0  0  0  0
 15 52  1  0  0  0  0
 16 17  1  0  0  0  0
 16 21  2  0  0  0  0
 17 18  2  0  0  0  0
 17 53  1  0  0  0  0
 18 19  1  0  0  0  0
 18 54  1  0  0  0  0
 19 20  2  0  0  0  0
 19 55  1  0  0  0  0
 20 21  1  0  0  0  0
 20 56  1  0  0  0  0
 21 57  1  0  0  0  0
 22 23  1  0  0  0  0
 22 58  1  0  0  0  0
 22 59  1  0  0  0  0
 24 23  1  0  0  0  0
 23 60  1  0  0  0  0
 23 61  1  0  0  0  0
 24 34  1  6  0  0  0
 24 25  1  0  0  0  0
 30 24  1  0  0  0  0
 25 26  1  0  0  0  0
 25 27  1  1  0  0  0
 25 62  1  6  0  0  0
 26 63  1  0  0  0  0
 26 64  1  0  0  0  0
 26 65  1  0  0  0  0
 27 28  1  0  0  0  0
 27 66  1  0  0  0  0
 27 67  1  0  0  0  0
 29 28  1  0  0  0  0
 28 68  1  0  0  0  0
 28 69  1  0  0  0  0
 30 29  1  0  0  0  0
 29 70  1  6  0  0  0
 30 31  1  6  0  0  0
 31 32  1  0  0  0  0
M  END
