
  Mrv171c004271813302D          

 46 49  0  0  0  0            999 V2000
    1.1327   -1.4380    0.0000 C   0  0  0  0  0  0  0  0  0  0  0  0
    0.4443   -0.9833    0.0000 C   0  0  1  0  0  0  0  0  0  0  0  0
   -0.2749   -1.4145    0.0000 C   0  0  0  0  0  0  0  0  0  0  0  0
   -0.8385   -0.7950    0.0000 C   0  0  0  0  0  0  0  0  0  0  0  0
   -0.7423    0.0599    0.0000 C   0  0  1  0  0  0  0  0  0  0  0  0
   -1.5750    0.2926    0.0000 C   0  0  1  0  0  0  0  0  0  0  0  0
   -2.1352   -0.3130    0.0000 C   0  0  0  0  0  0  0  0  0  0  0  0
   -2.9398   -0.1306    0.0000 O   0  0  0  0  0  0  0  0  0  0  0  0
   -1.8635    1.0827    0.0000 C   0  0  1  0  0  0  0  0  0  0  0  0
   -2.6460    1.3441    0.0000 O   0  0  0  0  0  0  0  0  0  0  0  0
   -3.2636    0.7972    0.0000 O   0  0  0  0  0  0  0  0  0  0  0  0
   -1.1584    1.5403    0.0000 O   0  0  0  0  0  0  0  0  0  0  0  0
   -0.3435    1.2697    0.0000 C   0  0  2  0  0  0  0  0  0  0  0  0
    0.5891    1.0490    0.0000 O   0  0  0  0  0  0  0  0  0  0  0  0
    1.4212    1.2619    0.0000 C   0  0  1  0  0  0  0  0  0  0  0  0
    2.1066    1.7210    0.0000 C   0  0  0  0  0  0  0  0  0  0  0  0
    1.9069    0.5642    0.0000 C   0  0  0  0  0  0  0  0  0  0  0  0
    1.4181   -0.1249    0.0000 C   0  0  0  0  0  0  0  0  0  0  0  0
    0.5607   -0.1361    0.0000 C   0  0  2  0  0  0  0  0  0  0  0  0
    0.0000    0.5594    0.0000 C   0  0  1  0  0  0  0  0  0  0  0  0
    0.2386    1.5102    0.0000 O   0  0  0  0  0  0  0  0  0  0  0  0
    0.9648    1.9706    0.0000 O   0  0  0  0  0  0  0  0  0  0  0  0
   -1.3502   -0.5012    0.0000 H   0  0  0  0  0  0  0  0  0  0  0  0
   -0.2342   -0.3569    0.0000 H   0  0  0  0  0  0  0  0  0  0  0  0
    0.6781   -2.1264    0.0000 H   0  0  0  0  0  0  0  0  0  0  0  0
    1.8211   -1.8926    0.0000 H   0  0  0  0  0  0  0  0  0  0  0  0
    1.5873   -0.7495    0.0000 H   0  0  0  0  0  0  0  0  0  0  0  0
    1.1958   -0.6430    0.0000 H   0  0  0  0  0  0  0  0  0  0  0  0
   -0.7728   -2.0723    0.0000 H   0  0  0  0  0  0  0  0  0  0  0  0
    0.0120   -2.1880    0.0000 H   0  0  0  0  0  0  0  0  0  0  0  0
   -1.6565   -0.6877    0.0000 H   0  0  0  0  0  0  0  0  0  0  0  0
   -1.4384   -1.3613    0.0000 H   0  0  0  0  0  0  0  0  0  0  0  0
   -0.8737    0.8744    0.0000 H   0  0  0  0  0  0  0  0  0  0  0  0
   -2.4892   -1.0582    0.0000 H   0  0  0  0  0  0  0  0  0  0  0  0
   -2.3795    0.4750    0.0000 H   0  0  0  0  0  0  0  0  0  0  0  0
   -3.7278   -0.3749    0.0000 H   0  0  0  0  0  0  0  0  0  0  0  0
   -1.9677    1.9011    0.0000 H   0  0  0  0  0  0  0  0  0  0  0  0
   -4.0742    0.6434    0.0000 H   0  0  0  0  0  0  0  0  0  0  0  0
   -0.3729    2.0942    0.0000 H   0  0  0  0  0  0  0  0  0  0  0  0
    2.5657    1.0356    0.0000 H   0  0  0  0  0  0  0  0  0  0  0  0
    2.7921    2.1802    0.0000 H   0  0  0  0  0  0  0  0  0  0  0  0
    1.6475    2.4065    0.0000 H   0  0  0  0  0  0  0  0  0  0  0  0
    2.1659   -0.2191    0.0000 H   0  0  0  0  0  0  0  0  0  0  0  0
    2.6913    0.3084    0.0000 H   0  0  0  0  0  0  0  0  0  0  0  0
    1.3222    0.6945    0.0000 H   0  0  0  0  0  0  0  0  0  0  0  0
    0.7982    0.4195    0.0000 H   0  0  0  0  0  0  0  0  0  0  0  0
  2  1  1  1  0  0  0
  1 25  1  0  0  0  0
  1 26  1  0  0  0  0
  1 27  1  0  0  0  0
  2  3  1  0  0  0  0
 19  2  1  0  0  0  0
  2 28  1  6  0  0  0
  3  4  1  0  0  0  0
  3 29  1  0  0  0  0
  3 30  1  0  0  0  0
  5  4  1  0  0  0  0
  4 31  1  0  0  0  0
  4 32  1  0  0  0  0
  5  6  1  0  0  0  0
 20  5  1  0  0  0  0
  5 33  1  6  0  0  0
  6 23  1  6  0  0  0
  6  7  1  1  0  0  0
  6  9  1  0  0  0  0
  7  8  1  0  0  0  0
  7 34  1  0  0  0  0
  7 35  1  0  0  0  0
  8 36  1  0  0  0  0
  9 10  1  1  0  0  0
  9 12  1  0  0  0  0
  9 37  1  6  0  0  0
 10 11  1  0  0  0  0
 11 38  1  0  0  0  0
 13 12  1  0  0  0  0
 13 14  1  0  0  0  0
 20 13  1  0  0  0  0
 13 39  1  1  0  0  0
 15 14  1  0  0  0  0
 15 16  1  1  0  0  0
 15 17  1  0  0  0  0
 15 22  1  0  0  0  0
 16 40  1  0  0  0  0
 16 41  1  0  0  0  0
 16 42  1  0  0  0  0
 17 18  1  0  0  0  0
 17 43  1  0  0  0  0
 17 44  1  0  0  0  0
 19 18  1  0  0  0  0
 18 45  1  0  0  0  0
 18 46  1  0  0  0  0
 19 24  1  6  0  0  0
 20 19  1  0  0  0  0
 20 21  1  6  0  0  0
 21 22  1  0  0  0  0
M  END
