
  Mrv171c004271813302D          

 45 48  0  0  0  0            999 V2000
   -1.8896   -0.8226    0.0000 C   0  0  0  0  0  0  0  0  0  0  0  0
   -2.1339   -0.0346    0.0000 C   0  0  0  0  0  0  0  0  0  0  0  0
   -1.5736    0.5710    0.0000 C   0  0  1  0  0  0  0  0  0  0  0  0
   -1.8621    1.3611    0.0000 C   0  0  0  0  0  0  0  0  0  0  0  0
   -2.6446    1.6225    0.0000 O   0  0  0  0  0  0  0  0  0  0  0  0
   -1.1570    1.8187    0.0000 O   0  0  0  0  0  0  0  0  0  0  0  0
   -0.3422    1.5481    0.0000 C   0  0  2  0  0  0  0  0  0  0  0  0
    0.5905    1.3274    0.0000 O   0  0  0  0  0  0  0  0  0  0  0  0
    1.4225    1.5403    0.0000 C   0  0  1  0  0  0  0  0  0  0  0  0
    2.1080    1.9994    0.0000 C   0  0  0  0  0  0  0  0  0  0  0  0
    1.9083    0.8425    0.0000 C   0  0  0  0  0  0  0  0  0  0  0  0
    1.4195    0.1535    0.0000 C   0  0  0  0  0  0  0  0  0  0  0  0
    0.5621    0.1423    0.0000 C   0  0  1  0  0  0  0  0  0  0  0  0
    0.4456   -0.7050    0.0000 C   0  0  1  0  0  0  0  0  0  0  0  0
    1.1341   -1.1596    0.0000 C   0  0  0  0  0  0  0  0  0  0  0  0
   -0.2736   -1.1361    0.0000 C   0  0  0  0  0  0  0  0  0  0  0  0
   -0.8371   -0.5166    0.0000 C   0  0  0  0  0  0  0  0  0  0  0  0
   -0.7410    0.3383    0.0000 C   0  0  2  0  0  0  0  0  0  0  0  0
    0.0014    0.8377    0.0000 C   0  0  1  0  0  0  0  0  0  0  0  0
    0.2400    1.7886    0.0000 O   0  0  0  0  0  0  0  0  0  0  0  0
    0.9662    2.2489    0.0000 O   0  0  0  0  0  0  0  0  0  0  0  0
   -1.3489   -0.2229    0.0000 H   0  0  0  0  0  0  0  0  0  0  0  0
    0.9132    0.8889    0.0000 H   0  0  0  0  0  0  0  0  0  0  0  0
   -2.6776   -1.0669    0.0000 H   0  0  0  0  0  0  0  0  0  0  0  0
   -1.6453   -1.6106    0.0000 H   0  0  0  0  0  0  0  0  0  0  0  0
   -1.1016   -0.5783    0.0000 H   0  0  0  0  0  0  0  0  0  0  0  0
   -2.7710    0.4895    0.0000 H   0  0  0  0  0  0  0  0  0  0  0  0
   -2.9347   -0.2327    0.0000 H   0  0  0  0  0  0  0  0  0  0  0  0
   -0.3715    2.3726    0.0000 H   0  0  0  0  0  0  0  0  0  0  0  0
    2.5671    1.3140    0.0000 H   0  0  0  0  0  0  0  0  0  0  0  0
    2.7934    2.4585    0.0000 H   0  0  0  0  0  0  0  0  0  0  0  0
    1.6489    2.6849    0.0000 H   0  0  0  0  0  0  0  0  0  0  0  0
    2.1673    0.0592    0.0000 H   0  0  0  0  0  0  0  0  0  0  0  0
    2.6927    0.5868    0.0000 H   0  0  0  0  0  0  0  0  0  0  0  0
    0.9836   -0.5469    0.0000 H   0  0  0  0  0  0  0  0  0  0  0  0
    1.7741   -0.5914    0.0000 H   0  0  0  0  0  0  0  0  0  0  0  0
   -0.2428   -0.2503    0.0000 H   0  0  0  0  0  0  0  0  0  0  0  0
    0.4219   -1.5761    0.0000 H   0  0  0  0  0  0  0  0  0  0  0  0
    1.1927   -1.9825    0.0000 H   0  0  0  0  0  0  0  0  0  0  0  0
    1.8981   -1.4708    0.0000 H   0  0  0  0  0  0  0  0  0  0  0  0
   -1.0001   -1.5270    0.0000 H   0  0  0  0  0  0  0  0  0  0  0  0
   -0.5326   -1.9194    0.0000 H   0  0  0  0  0  0  0  0  0  0  0  0
   -1.3353   -1.1742    0.0000 H   0  0  0  0  0  0  0  0  0  0  0  0
   -0.8001   -1.3408    0.0000 H   0  0  0  0  0  0  0  0  0  0  0  0
   -0.8723    1.1528    0.0000 H   0  0  0  0  0  0  0  0  0  0  0  0
  1  2  1  0  0  0  0
  1 24  1  0  0  0  0
  1 25  1  0  0  0  0
  1 26  1  0  0  0  0
  3  2  1  1  0  0  0
  2 27  1  0  0  0  0
  2 28  1  0  0  0  0
  3 22  1  6  0  0  0
  3  4  1  0  0  0  0
 18  3  1  0  0  0  0
  4  5  2  0  0  0  0
  4  6  1  0  0  0  0
  7  6  1  0  0  0  0
  7  8  1  0  0  0  0
 19  7  1  0  0  0  0
  7 29  1  1  0  0  0
  9  8  1  0  0  0  0
  9 10  1  1  0  0  0
  9 11  1  0  0  0  0
  9 21  1  0  0  0  0
 10 30  1  0  0  0  0
 10 31  1  0  0  0  0
 10 32  1  0  0  0  0
 11 12  1  0  0  0  0
 11 33  1  0  0  0  0
 11 34  1  0  0  0  0
 13 12  1  0  0  0  0
 12 35  1  0  0  0  0
 12 36  1  0  0  0  0
 13 23  1  6  0  0  0
 13 14  1  0  0  0  0
 19 13  1  0  0  0  0
 14 15  1  0  0  0  0
 14 16  1  1  0  0  0
 14 37  1  6  0  0  0
 15 38  1  0  0  0  0
 15 39  1  0  0  0  0
 15 40  1  0  0  0  0
 16 17  1  0  0  0  0
 16 41  1  0  0  0  0
 16 42  1  0  0  0  0
 18 17  1  0  0  0  0
 17 43  1  0  0  0  0
 17 44  1  0  0  0  0
 19 18  1  0  0  0  0
 18 45  1  6  0  0  0
 19 20  1  6  0  0  0
 20 21  1  0  0  0  0
M  END
