
  Mrv171c004271813302D          

 45 48  0  0  0  0            999 V2000
    1.0797   -1.4525    0.0000 C   0  0  0  0  0  0  0  0  0  0  0  0
    0.3913   -0.9978    0.0000 C   0  0  1  0  0  0  0  0  0  0  0  0
   -0.3279   -1.4290    0.0000 C   0  0  0  0  0  0  0  0  0  0  0  0
   -0.8914   -0.8095    0.0000 C   0  0  0  0  0  0  0  0  0  0  0  0
   -0.7953    0.0454    0.0000 C   0  0  1  0  0  0  0  0  0  0  0  0
   -1.6279    0.2781    0.0000 C   0  0  2  0  0  0  0  0  0  0  0  0
   -1.6815   -0.5452    0.0000 C   0  0  0  0  0  0  0  0  0  0  0  0
   -2.4446    0.1608    0.0000 O   0  0  0  0  0  0  0  0  0  0  0  0
   -1.9165    1.0682    0.0000 C   0  0  1  0  0  0  0  0  0  0  0  0
   -2.6990    1.3297    0.0000 O   0  0  0  0  0  0  0  0  0  0  0  0
   -1.2113    1.5258    0.0000 O   0  0  0  0  0  0  0  0  0  0  0  0
   -0.3965    1.2552    0.0000 C   0  0  2  0  0  0  0  0  0  0  0  0
    0.5362    1.0345    0.0000 O   0  0  0  0  0  0  0  0  0  0  0  0
    1.3682    1.2474    0.0000 C   0  0  1  0  0  0  0  0  0  0  0  0
    2.0536    1.7066    0.0000 C   0  0  0  0  0  0  0  0  0  0  0  0
    1.8540    0.5497    0.0000 C   0  0  0  0  0  0  0  0  0  0  0  0
    1.3652   -0.1394    0.0000 C   0  0  0  0  0  0  0  0  0  0  0  0
    0.5077   -0.1505    0.0000 C   0  0  2  0  0  0  0  0  0  0  0  0
   -0.0530    0.5449    0.0000 C   0  0  1  0  0  0  0  0  0  0  0  0
    0.1856    1.4957    0.0000 O   0  0  0  0  0  0  0  0  0  0  0  0
    0.9118    1.9561    0.0000 O   0  0  0  0  0  0  0  0  0  0  0  0
   -2.0206    1.8866    0.0000 H   0  0  0  0  0  0  0  0  0  0  0  0
   -0.3074   -0.0234    0.0000 H   0  0  0  0  0  0  0  0  0  0  0  0
    0.6251   -2.1409    0.0000 H   0  0  0  0  0  0  0  0  0  0  0  0
    1.7681   -1.9071    0.0000 H   0  0  0  0  0  0  0  0  0  0  0  0
    1.5343   -0.7640    0.0000 H   0  0  0  0  0  0  0  0  0  0  0  0
    1.1428   -0.6574    0.0000 H   0  0  0  0  0  0  0  0  0  0  0  0
   -0.8258   -2.0868    0.0000 H   0  0  0  0  0  0  0  0  0  0  0  0
   -0.0409   -2.2025    0.0000 H   0  0  0  0  0  0  0  0  0  0  0  0
   -1.3420   -1.5006    0.0000 H   0  0  0  0  0  0  0  0  0  0  0  0
   -0.1065   -0.5554    0.0000 H   0  0  0  0  0  0  0  0  0  0  0  0
   -0.9266    0.8599    0.0000 H   0  0  0  0  0  0  0  0  0  0  0  0
   -2.3966   -0.1337    0.0000 H   0  0  0  0  0  0  0  0  0  0  0  0
   -2.3663   -1.0052    0.0000 H   0  0  0  0  0  0  0  0  0  0  0  0
   -1.5710   -1.3627    0.0000 H   0  0  0  0  0  0  0  0  0  0  0  0
   -3.1096    0.6491    0.0000 H   0  0  0  0  0  0  0  0  0  0  0  0
   -3.3229    1.8694    0.0000 H   0  0  0  0  0  0  0  0  0  0  0  0
   -0.4258    2.0797    0.0000 H   0  0  0  0  0  0  0  0  0  0  0  0
    2.5128    1.0211    0.0000 H   0  0  0  0  0  0  0  0  0  0  0  0
    2.7391    2.1657    0.0000 H   0  0  0  0  0  0  0  0  0  0  0  0
    1.5945    2.3920    0.0000 H   0  0  0  0  0  0  0  0  0  0  0  0
    2.1129   -0.2336    0.0000 H   0  0  0  0  0  0  0  0  0  0  0  0
    2.6383    0.2939    0.0000 H   0  0  0  0  0  0  0  0  0  0  0  0
    1.2692    0.6800    0.0000 H   0  0  0  0  0  0  0  0  0  0  0  0
    0.7452    0.4050    0.0000 H   0  0  0  0  0  0  0  0  0  0  0  0
  2  1  1  1  0  0  0
  1 24  1  0  0  0  0
  1 25  1  0  0  0  0
  1 26  1  0  0  0  0
  2  3  1  0  0  0  0
 18  2  1  0  0  0  0
  2 27  1  6  0  0  0
  3  4  1  0  0  0  0
  3 28  1  0  0  0  0
  3 29  1  0  0  0  0
  5  4  1  0  0  0  0
  4 30  1  0  0  0  0
  4 31  1  0  0  0  0
  5  6  1  0  0  0  0
 19  5  1  0  0  0  0
  5 32  1  6  0  0  0
  6  7  1  1  0  0  0
  6  8  1  6  0  0  0
  6  9  1  0  0  0  0
  7 33  1  0  0  0  0
  7 34  1  0  0  0  0
  7 35  1  0  0  0  0
  8 36  1  0  0  0  0
  9 22  1  6  0  0  0
  9 10  1  1  0  0  0
  9 11  1  0  0  0  0
 10 37  1  0  0  0  0
 12 11  1  0  0  0  0
 12 13  1  0  0  0  0
 19 12  1  0  0  0  0
 12 38  1  1  0  0  0
 14 13  1  0  0  0  0
 14 15  1  1  0  0  0
 14 16  1  0  0  0  0
 14 21  1  0  0  0  0
 15 39  1  0  0  0  0
 15 40  1  0  0  0  0
 15 41  1  0  0  0  0
 16 17  1  0  0  0  0
 16 42  1  0  0  0  0
 16 43  1  0  0  0  0
 18 17  1  0  0  0  0
 17 44  1  0  0  0  0
 17 45  1  0  0  0  0
 18 23  1  6  0  0  0
 19 18  1  0  0  0  0
 19 20  1  6  0  0  0
 20 21  1  0  0  0  0
M  END
