
  Mrv171c004271813302D          

 42 45  0  0  0  0            999 V2000
    0.0488   -1.4775    0.0000 C   0  0  0  0  0  0  0  0  0  0  0  0
   -0.6396   -1.0229    0.0000 C   0  0  1  0  0  0  0  0  0  0  0  0
   -1.3588   -1.4541    0.0000 C   0  0  0  0  0  0  0  0  0  0  0  0
   -1.9224   -0.8346    0.0000 C   0  0  0  0  0  0  0  0  0  0  0  0
   -1.8262    0.0203    0.0000 C   0  0  1  0  0  0  0  0  0  0  0  0
   -2.6588    0.2530    0.0000 C   0  0  2  0  0  0  0  0  0  0  0  0
   -2.7124   -0.5703    0.0000 Br  0  0  0  0  0  0  0  0  0  0  0  0
   -3.4755    0.1357    0.0000 C   0  0  0  0  0  0  0  0  0  0  0  0
   -3.7822   -0.6301    0.0000 Br  0  0  0  0  0  0  0  0  0  0  0  0
   -2.9474    1.0431    0.0000 C   0  0  0  0  0  0  0  0  0  0  0  0
   -3.7299    1.3046    0.0000 O   0  0  0  0  0  0  0  0  0  0  0  0
   -2.2422    1.5007    0.0000 O   0  0  0  0  0  0  0  0  0  0  0  0
   -1.4274    1.2301    0.0000 C   0  0  2  0  0  0  0  0  0  0  0  0
   -0.4947    1.0094    0.0000 O   0  0  0  0  0  0  0  0  0  0  0  0
    0.3373    1.2224    0.0000 C   0  0  1  0  0  0  0  0  0  0  0  0
    1.0227    1.6815    0.0000 C   0  0  0  0  0  0  0  0  0  0  0  0
    0.8231    0.5246    0.0000 C   0  0  0  0  0  0  0  0  0  0  0  0
    0.3343   -0.1644    0.0000 C   0  0  0  0  0  0  0  0  0  0  0  0
   -0.5232   -0.1756    0.0000 C   0  0  2  0  0  0  0  0  0  0  0  0
   -1.0839    0.5198    0.0000 C   0  0  1  0  0  0  0  0  0  0  0  0
   -0.8453    1.4706    0.0000 O   0  0  0  0  0  0  0  0  0  0  0  0
   -0.1191    1.9310    0.0000 O   0  0  0  0  0  0  0  0  0  0  0  0
   -1.3383   -0.0485    0.0000 H   0  0  0  0  0  0  0  0  0  0  0  0
   -0.4058   -2.1660    0.0000 H   0  0  0  0  0  0  0  0  0  0  0  0
    0.7372   -1.9322    0.0000 H   0  0  0  0  0  0  0  0  0  0  0  0
    0.5034   -0.7891    0.0000 H   0  0  0  0  0  0  0  0  0  0  0  0
    0.1119   -0.6825    0.0000 H   0  0  0  0  0  0  0  0  0  0  0  0
   -1.8567   -2.1119    0.0000 H   0  0  0  0  0  0  0  0  0  0  0  0
   -1.0718   -2.2276    0.0000 H   0  0  0  0  0  0  0  0  0  0  0  0
   -2.3729   -1.5257    0.0000 H   0  0  0  0  0  0  0  0  0  0  0  0
   -1.1375   -0.5805    0.0000 H   0  0  0  0  0  0  0  0  0  0  0  0
   -1.9575    0.8348    0.0000 H   0  0  0  0  0  0  0  0  0  0  0  0
   -3.6400    0.9442    0.0000 H   0  0  0  0  0  0  0  0  0  0  0  0
   -4.2222    0.4865    0.0000 H   0  0  0  0  0  0  0  0  0  0  0  0
   -1.4567    2.0546    0.0000 H   0  0  0  0  0  0  0  0  0  0  0  0
    1.4819    0.9960    0.0000 H   0  0  0  0  0  0  0  0  0  0  0  0
    1.7082    2.1406    0.0000 H   0  0  0  0  0  0  0  0  0  0  0  0
    0.5636    2.3669    0.0000 H   0  0  0  0  0  0  0  0  0  0  0  0
    1.0820   -0.2587    0.0000 H   0  0  0  0  0  0  0  0  0  0  0  0
    1.6074    0.2688    0.0000 H   0  0  0  0  0  0  0  0  0  0  0  0
    0.2383    0.6550    0.0000 H   0  0  0  0  0  0  0  0  0  0  0  0
   -0.2857    0.3799    0.0000 H   0  0  0  0  0  0  0  0  0  0  0  0
  2  1  1  1  0  0  0
  1 24  1  0  0  0  0
  1 25  1  0  0  0  0
  1 26  1  0  0  0  0
  2  3  1  0  0  0  0
 19  2  1  0  0  0  0
  2 27  1  6  0  0  0
  3  4  1  0  0  0  0
  3 28  1  0  0  0  0
  3 29  1  0  0  0  0
  5  4  1  0  0  0  0
  4 30  1  0  0  0  0
  4 31  1  0  0  0  0
  5  6  1  0  0  0  0
 20  5  1  0  0  0  0
  5 32  1  6  0  0  0
  6  7  1  1  0  0  0
  6  8  1  6  0  0  0
  6 10  1  0  0  0  0
  8  9  1  0  0  0  0
  8 33  1  0  0  0  0
  8 34  1  0  0  0  0
 10 11  2  0  0  0  0
 10 12  1  0  0  0  0
 13 12  1  0  0  0  0
 13 14  1  0  0  0  0
 20 13  1  0  0  0  0
 13 35  1  1  0  0  0
 15 14  1  0  0  0  0
 15 16  1  1  0  0  0
 15 17  1  0  0  0  0
 15 22  1  0  0  0  0
 16 36  1  0  0  0  0
 16 37  1  0  0  0  0
 16 38  1  0  0  0  0
 17 18  1  0  0  0  0
 17 39  1  0  0  0  0
 17 40  1  0  0  0  0
 19 18  1  0  0  0  0
 18 41  1  0  0  0  0
 18 42  1  0  0  0  0
 19 23  1  6  0  0  0
 20 19  1  0  0  0  0
 20 21  1  6  0  0  0
 21 22  1  0  0  0  0
M  END
