
  Mrv171c004271813302D          

 56 59  0  0  0  0            999 V2000
   -5.0357    0.0245    0.0000 C   0  0  0  0  0  0  0  0  0  0  0  0
   -4.4180    0.5714    0.0000 C   0  0  0  0  0  0  0  0  0  0  0  0
   -3.6356    0.3099    0.0000 O   0  0  0  0  0  0  0  0  0  0  0  0
   -3.0179    0.8569    0.0000 C   0  0  0  0  0  0  0  0  0  0  0  0
   -3.1827    1.6652    0.0000 O   0  0  0  0  0  0  0  0  0  0  0  0
   -2.2354    0.5954    0.0000 C   0  0  0  0  0  0  0  0  0  0  0  0
   -1.6177    1.1423    0.0000 O   0  0  0  0  0  0  0  0  0  0  0  0
   -0.8353    0.8808    0.0000 C   0  0  1  0  0  0  0  0  0  0  0  0
   -0.1301    1.3385    0.0000 O   0  0  0  0  0  0  0  0  0  0  0  0
    0.6847    1.0678    0.0000 C   0  0  2  0  0  0  0  0  0  0  0  0
    1.6174    0.8471    0.0000 O   0  0  0  0  0  0  0  0  0  0  0  0
    2.4494    1.0601    0.0000 C   0  0  1  0  0  0  0  0  0  0  0  0
    3.1349    1.5192    0.0000 C   0  0  0  0  0  0  0  0  0  0  0  0
    2.9352    0.3623    0.0000 C   0  0  0  0  0  0  0  0  0  0  0  0
    2.4464   -0.3267    0.0000 C   0  0  0  0  0  0  0  0  0  0  0  0
    1.5889   -0.3379    0.0000 C   0  0  1  0  0  0  0  0  0  0  0  0
    1.4725   -1.1852    0.0000 C   0  0  1  0  0  0  0  0  0  0  0  0
    2.1609   -1.6398    0.0000 C   0  0  0  0  0  0  0  0  0  0  0  0
    0.7533   -1.6164    0.0000 C   0  0  0  0  0  0  0  0  0  0  0  0
    0.1898   -0.9969    0.0000 C   0  0  0  0  0  0  0  0  0  0  0  0
    0.2859   -0.1420    0.0000 C   0  0  1  0  0  0  0  0  0  0  0  0
   -0.5467    0.0907    0.0000 C   0  0  1  0  0  0  0  0  0  0  0  0
   -1.1070   -0.5149    0.0000 C   0  0  0  0  0  0  0  0  0  0  0  0
    1.0283    0.3575    0.0000 C   0  0  1  0  0  0  0  0  0  0  0  0
    1.2668    1.3083    0.0000 O   0  0  0  0  0  0  0  0  0  0  0  0
    1.9930    1.7687    0.0000 O   0  0  0  0  0  0  0  0  0  0  0  0
    1.9400    0.4086    0.0000 H   0  0  0  0  0  0  0  0  0  0  0  0
   -0.3220   -0.7031    0.0000 H   0  0  0  0  0  0  0  0  0  0  0  0
   -5.5826    0.6422    0.0000 H   0  0  0  0  0  0  0  0  0  0  0  0
   -5.6534   -0.5224    0.0000 H   0  0  0  0  0  0  0  0  0  0  0  0
   -4.4888   -0.5932    0.0000 H   0  0  0  0  0  0  0  0  0  0  0  0
   -4.2025    1.3678    0.0000 H   0  0  0  0  0  0  0  0  0  0  0  0
   -4.9281    1.2198    0.0000 H   0  0  0  0  0  0  0  0  0  0  0  0
   -2.4509   -0.2010    0.0000 H   0  0  0  0  0  0  0  0  0  0  0  0
   -1.7253   -0.0530    0.0000 H   0  0  0  0  0  0  0  0  0  0  0  0
   -1.4105    0.2895    0.0000 H   0  0  0  0  0  0  0  0  0  0  0  0
    0.6554    1.8923    0.0000 H   0  0  0  0  0  0  0  0  0  0  0  0
    3.5940    0.8337    0.0000 H   0  0  0  0  0  0  0  0  0  0  0  0
    3.8203    1.9783    0.0000 H   0  0  0  0  0  0  0  0  0  0  0  0
    2.6757    2.2046    0.0000 H   0  0  0  0  0  0  0  0  0  0  0  0
    3.1941   -0.4210    0.0000 H   0  0  0  0  0  0  0  0  0  0  0  0
    3.7195    0.1066    0.0000 H   0  0  0  0  0  0  0  0  0  0  0  0
    2.0104   -1.0271    0.0000 H   0  0  0  0  0  0  0  0  0  0  0  0
    2.8010   -1.0716    0.0000 H   0  0  0  0  0  0  0  0  0  0  0  0
    0.7841   -0.7306    0.0000 H   0  0  0  0  0  0  0  0  0  0  0  0
    1.4488   -2.0563    0.0000 H   0  0  0  0  0  0  0  0  0  0  0  0
    2.2196   -2.4627    0.0000 H   0  0  0  0  0  0  0  0  0  0  0  0
    2.9250   -1.9511    0.0000 H   0  0  0  0  0  0  0  0  0  0  0  0
    0.0267   -2.0072    0.0000 H   0  0  0  0  0  0  0  0  0  0  0  0
    0.4942   -2.3996    0.0000 H   0  0  0  0  0  0  0  0  0  0  0  0
   -0.6282   -0.8895    0.0000 H   0  0  0  0  0  0  0  0  0  0  0  0
   -0.4102   -1.5632    0.0000 H   0  0  0  0  0  0  0  0  0  0  0  0
    0.1546    0.6725    0.0000 H   0  0  0  0  0  0  0  0  0  0  0  0
   -1.9241   -0.6286    0.0000 H   0  0  0  0  0  0  0  0  0  0  0  0
   -1.6081   -1.1702    0.0000 H   0  0  0  0  0  0  0  0  0  0  0  0
   -1.0025   -1.3332    0.0000 H   0  0  0  0  0  0  0  0  0  0  0  0
  1  2  1  0  0  0  0
  1 29  1  0  0  0  0
  1 30  1  0  0  0  0
  1 31  1  0  0  0  0
  2  3  1  0  0  0  0
  2 32  1  0  0  0  0
  2 33  1  0  0  0  0
  3  4  1  0  0  0  0
  4  5  2  0  0  0  0
  4  6  1  0  0  0  0
  6  7  1  0  0  0  0
  6 34  1  0  0  0  0
  6 35  1  0  0  0  0
  8  7  1  1  0  0  0
  8  9  1  0  0  0  0
 22  8  1  0  0  0  0
  8 36  1  6  0  0  0
 10  9  1  0  0  0  0
 10 11  1  0  0  0  0
 24 10  1  0  0  0  0
 10 37  1  1  0  0  0
 12 11  1  0  0  0  0
 12 13  1  1  0  0  0
 12 14  1  0  0  0  0
 12 26  1  0  0  0  0
 13 38  1  0  0  0  0
 13 39  1  0  0  0  0
 13 40  1  0  0  0  0
 14 15  1  0  0  0  0
 14 41  1  0  0  0  0
 14 42  1  0  0  0  0
 16 15  1  0  0  0  0
 15 43  1  0  0  0  0
 15 44  1  0  0  0  0
 16 27  1  6  0  0  0
 16 17  1  0  0  0  0
 24 16  1  0  0  0  0
 17 18  1  0  0  0  0
 17 19  1  1  0  0  0
 17 45  1  6  0  0  0
 18 46  1  0  0  0  0
 18 47  1  0  0  0  0
 18 48  1  0  0  0  0
 19 20  1  0  0  0  0
 19 49  1  0  0  0  0
 19 50  1  0  0  0  0
 21 20  1  0  0  0  0
 20 51  1  0  0  0  0
 20 52  1  0  0  0  0
 21 22  1  0  0  0  0
 24 21  1  0  0  0  0
 21 53  1  6  0  0  0
 22 28  1  6  0  0  0
 22 23  1  1  0  0  0
 23 54  1  0  0  0  0
 23 55  1  0  0  0  0
 23 56  1  0  0  0  0
 24 25  1  6  0  0  0
 25 26  1  0  0  0  0
M  END
