
  Mrv171c004271813302D          

 50 53  0  0  0  0            999 V2000
   -3.5534    0.8372    0.0000 C   0  0  0  0  0  0  0  0  0  0  0  0
   -2.7710    0.5757    0.0000 C   0  0  0  0  0  0  0  0  0  0  0  0
   -2.1533    1.1226    0.0000 O   0  0  0  0  0  0  0  0  0  0  0  0
   -1.3708    0.8612    0.0000 C   0  0  1  0  0  0  0  0  0  0  0  0
   -0.6657    1.3188    0.0000 O   0  0  0  0  0  0  0  0  0  0  0  0
    0.1491    1.0482    0.0000 C   0  0  2  0  0  0  0  0  0  0  0  0
    1.0818    0.8275    0.0000 O   0  0  0  0  0  0  0  0  0  0  0  0
    1.9139    1.0404    0.0000 C   0  0  1  0  0  0  0  0  0  0  0  0
    2.5993    1.4995    0.0000 C   0  0  0  0  0  0  0  0  0  0  0  0
    2.3996    0.3427    0.0000 C   0  0  0  0  0  0  0  0  0  0  0  0
    1.9108   -0.3464    0.0000 C   0  0  0  0  0  0  0  0  0  0  0  0
    1.0534   -0.3576    0.0000 C   0  0  1  0  0  0  0  0  0  0  0  0
    0.9369   -1.2049    0.0000 C   0  0  1  0  0  0  0  0  0  0  0  0
    1.6254   -1.6595    0.0000 C   0  0  0  0  0  0  0  0  0  0  0  0
    0.2177   -1.6360    0.0000 C   0  0  0  0  0  0  0  0  0  0  0  0
   -0.3458   -1.0165    0.0000 C   0  0  0  0  0  0  0  0  0  0  0  0
   -0.2496   -0.1616    0.0000 C   0  0  1  0  0  0  0  0  0  0  0  0
   -1.0823    0.0711    0.0000 C   0  0  1  0  0  0  0  0  0  0  0  0
   -1.6426   -0.5345    0.0000 C   0  0  0  0  0  0  0  0  0  0  0  0
    0.4927    0.3379    0.0000 C   0  0  1  0  0  0  0  0  0  0  0  0
    0.7313    1.2887    0.0000 O   0  0  0  0  0  0  0  0  0  0  0  0
    1.4575    1.7491    0.0000 O   0  0  0  0  0  0  0  0  0  0  0  0
   -1.9461    0.2698    0.0000 H   0  0  0  0  0  0  0  0  0  0  0  0
    1.4045    0.3890    0.0000 H   0  0  0  0  0  0  0  0  0  0  0  0
   -0.8576   -0.7227    0.0000 H   0  0  0  0  0  0  0  0  0  0  0  0
   -3.2920    1.6197    0.0000 H   0  0  0  0  0  0  0  0  0  0  0  0
   -4.3359    1.0987    0.0000 H   0  0  0  0  0  0  0  0  0  0  0  0
   -3.8149    0.0547    0.0000 H   0  0  0  0  0  0  0  0  0  0  0  0
   -2.9865   -0.2206    0.0000 H   0  0  0  0  0  0  0  0  0  0  0  0
   -2.2609   -0.0727    0.0000 H   0  0  0  0  0  0  0  0  0  0  0  0
    0.1198    1.8727    0.0000 H   0  0  0  0  0  0  0  0  0  0  0  0
    3.0584    0.8141    0.0000 H   0  0  0  0  0  0  0  0  0  0  0  0
    3.2847    1.9587    0.0000 H   0  0  0  0  0  0  0  0  0  0  0  0
    2.1402    2.1850    0.0000 H   0  0  0  0  0  0  0  0  0  0  0  0
    2.6586   -0.4406    0.0000 H   0  0  0  0  0  0  0  0  0  0  0  0
    3.1840    0.0869    0.0000 H   0  0  0  0  0  0  0  0  0  0  0  0
    1.4749   -1.0468    0.0000 H   0  0  0  0  0  0  0  0  0  0  0  0
    2.2655   -1.0913    0.0000 H   0  0  0  0  0  0  0  0  0  0  0  0
    0.2485   -0.7502    0.0000 H   0  0  0  0  0  0  0  0  0  0  0  0
    0.9132   -2.0760    0.0000 H   0  0  0  0  0  0  0  0  0  0  0  0
    1.6840   -2.4824    0.0000 H   0  0  0  0  0  0  0  0  0  0  0  0
    2.3894   -1.9707    0.0000 H   0  0  0  0  0  0  0  0  0  0  0  0
   -0.5088   -2.0269    0.0000 H   0  0  0  0  0  0  0  0  0  0  0  0
   -0.0413   -2.4193    0.0000 H   0  0  0  0  0  0  0  0  0  0  0  0
   -1.1638   -0.9092    0.0000 H   0  0  0  0  0  0  0  0  0  0  0  0
   -0.9457   -1.5828    0.0000 H   0  0  0  0  0  0  0  0  0  0  0  0
   -0.3810    0.6529    0.0000 H   0  0  0  0  0  0  0  0  0  0  0  0
   -2.4597   -0.6482    0.0000 H   0  0  0  0  0  0  0  0  0  0  0  0
   -2.1436   -1.1899    0.0000 H   0  0  0  0  0  0  0  0  0  0  0  0
   -1.5381   -1.3529    0.0000 H   0  0  0  0  0  0  0  0  0  0  0  0
  1  2  1  0  0  0  0
  1 26  1  0  0  0  0
  1 27  1  0  0  0  0
  1 28  1  0  0  0  0
  2  3  1  0  0  0  0
  2 29  1  0  0  0  0
  2 30  1  0  0  0  0
  4  3  1  1  0  0  0
  4 23  1  6  0  0  0
  4  5  1  0  0  0  0
 18  4  1  0  0  0  0
  6  5  1  0  0  0  0
  6  7  1  0  0  0  0
 20  6  1  0  0  0  0
  6 31  1  1  0  0  0
  8  7  1  0  0  0  0
  8  9  1  1  0  0  0
  8 10  1  0  0  0  0
  8 22  1  0  0  0  0
  9 32  1  0  0  0  0
  9 33  1  0  0  0  0
  9 34  1  0  0  0  0
 10 11  1  0  0  0  0
 10 35  1  0  0  0  0
 10 36  1  0  0  0  0
 12 11  1  0  0  0  0
 11 37  1  0  0  0  0
 11 38  1  0  0  0  0
 12 24  1  6  0  0  0
 12 13  1  0  0  0  0
 20 12  1  0  0  0  0
 13 14  1  0  0  0  0
 13 15  1  1  0  0  0
 13 39  1  6  0  0  0
 14 40  1  0  0  0  0
 14 41  1  0  0  0  0
 14 42  1  0  0  0  0
 15 16  1  0  0  0  0
 15 43  1  0  0  0  0
 15 44  1  0  0  0  0
 17 16  1  0  0  0  0
 16 45  1  0  0  0  0
 16 46  1  0  0  0  0
 17 18  1  0  0  0  0
 20 17  1  0  0  0  0
 17 47  1  6  0  0  0
 18 25  1  6  0  0  0
 18 19  1  1  0  0  0
 19 48  1  0  0  0  0
 19 49  1  0  0  0  0
 19 50  1  0  0  0  0
 20 21  1  6  0  0  0
 21 22  1  0  0  0  0
M  END
