
  Mrv171c004271813302D          

 53 56  0  0  0  0            999 V2000
   -3.4115   -0.3939    0.0000 C   0  0  0  0  0  0  0  0  0  0  0  0
   -2.6114   -0.5951    0.0000 C   0  0  0  0  0  0  0  0  0  0  0  0
   -2.3855   -1.3886    0.0000 C   0  0  0  0  0  0  0  0  0  0  0  0
   -2.0371   -0.0028    0.0000 C   0  0  0  0  0  0  0  0  0  0  0  0
   -1.2370   -0.2039    0.0000 C   0  0  0  0  0  0  0  0  0  0  0  0
   -0.6627    0.3884    0.0000 C   0  0  1  0  0  0  0  0  0  0  0  0
   -0.8951    1.2022    0.0000 C   0  0  0  0  0  0  0  0  0  0  0  0
   -1.6958    1.4011    0.0000 O   0  0  0  0  0  0  0  0  0  0  0  0
   -0.3138    1.8077    0.0000 O   0  0  0  0  0  0  0  0  0  0  0  0
    0.4638    1.5648    0.0000 C   0  0  2  0  0  0  0  0  0  0  0  0
    1.0175    2.2258    0.0000 O   0  0  0  0  0  0  0  0  0  0  0  0
    1.7755    1.8299    0.0000 C   0  0  1  0  0  0  0  0  0  0  0  0
    2.1909    2.5427    0.0000 C   0  0  0  0  0  0  0  0  0  0  0  0
    2.5003    1.3613    0.0000 C   0  0  0  0  0  0  0  0  0  0  0  0
    2.4096    0.5179    0.0000 C   0  0  0  0  0  0  0  0  0  0  0  0
    1.5965    0.2341    0.0000 C   0  0  1  0  0  0  0  0  0  0  0  0
    1.6814   -0.5870    0.0000 C   0  0  1  0  0  0  0  0  0  0  0  0
    2.4273   -0.9396    0.0000 C   0  0  0  0  0  0  0  0  0  0  0  0
    0.9860   -1.0473    0.0000 C   0  0  0  0  0  0  0  0  0  0  0  0
    0.2378   -0.6727    0.0000 C   0  0  0  0  0  0  0  0  0  0  0  0
    0.1739    0.1772    0.0000 C   0  0  2  0  0  0  0  0  0  0  0  0
    0.8218    0.7215    0.0000 C   0  0  1  0  0  0  0  0  0  0  0  0
    1.3153    1.1970    0.0000 O   0  0  0  0  0  0  0  0  0  0  0  0
   -0.4372   -0.4052    0.0000 H   0  0  0  0  0  0  0  0  0  0  0  0
    0.8959   -0.2014    0.0000 H   0  0  0  0  0  0  0  0  0  0  0  0
   -3.2103    0.4062    0.0000 H   0  0  0  0  0  0  0  0  0  0  0  0
   -4.2116   -0.1927    0.0000 H   0  0  0  0  0  0  0  0  0  0  0  0
   -3.6126   -1.1940    0.0000 H   0  0  0  0  0  0  0  0  0  0  0  0
   -3.1856   -1.1874    0.0000 H   0  0  0  0  0  0  0  0  0  0  0  0
   -2.7870   -2.1093    0.0000 H   0  0  0  0  0  0  0  0  0  0  0  0
   -1.7932   -1.9628    0.0000 H   0  0  0  0  0  0  0  0  0  0  0  0
   -1.6775   -0.9651    0.0000 H   0  0  0  0  0  0  0  0  0  0  0  0
   -1.8828    0.8077    0.0000 H   0  0  0  0  0  0  0  0  0  0  0  0
   -2.5950    0.6050    0.0000 H   0  0  0  0  0  0  0  0  0  0  0  0
   -0.5789   -0.7015    0.0000 H   0  0  0  0  0  0  0  0  0  0  0  0
   -1.4628    0.5895    0.0000 H   0  0  0  0  0  0  0  0  0  0  0  0
   -0.0901    0.9533    0.0000 H   0  0  0  0  0  0  0  0  0  0  0  0
    2.9037    2.1273    0.0000 H   0  0  0  0  0  0  0  0  0  0  0  0
    2.6063    3.2555    0.0000 H   0  0  0  0  0  0  0  0  0  0  0  0
    1.4781    2.9581    0.0000 H   0  0  0  0  0  0  0  0  0  0  0  0
    3.2894    1.1207    0.0000 H   0  0  0  0  0  0  0  0  0  0  0  0
    1.7556    1.0063    0.0000 H   0  0  0  0  0  0  0  0  0  0  0  0
    2.7500   -0.2336    0.0000 H   0  0  0  0  0  0  0  0  0  0  0  0
    3.2187    0.3567    0.0000 H   0  0  0  0  0  0  0  0  0  0  0  0
    2.3547   -0.1103    0.0000 H   0  0  0  0  0  0  0  0  0  0  0  0
    1.8179   -1.4957    0.0000 H   0  0  0  0  0  0  0  0  0  0  0  0
    2.7104   -1.7145    0.0000 H   0  0  0  0  0  0  0  0  0  0  0  0
    3.2517   -0.9719    0.0000 H   0  0  0  0  0  0  0  0  0  0  0  0
    0.2927   -1.4946    0.0000 H   0  0  0  0  0  0  0  0  0  0  0  0
    1.0184   -1.8717    0.0000 H   0  0  0  0  0  0  0  0  0  0  0  0
   -0.3151   -1.2850    0.0000 H   0  0  0  0  0  0  0  0  0  0  0  0
   -0.2511   -0.0081    0.0000 H   0  0  0  0  0  0  0  0  0  0  0  0
    0.3956    0.9719    0.0000 H   0  0  0  0  0  0  0  0  0  0  0  0
  1  2  1  0  0  0  0
  1 26  1  0  0  0  0
  1 27  1  0  0  0  0
  1 28  1  0  0  0  0
  2  3  1  0  0  0  0
  2  4  1  0  0  0  0
  2 29  1  0  0  0  0
  3 30  1  0  0  0  0
  3 31  1  0  0  0  0
  3 32  1  0  0  0  0
  4  5  1  0  0  0  0
  4 33  1  0  0  0  0
  4 34  1  0  0  0  0
  6  5  1  0  0  0  0
  5 35  1  0  0  0  0
  5 36  1  0  0  0  0
  6 24  1  6  0  0  0
  6  7  1  0  0  0  0
 21  6  1  0  0  0  0
  7  8  2  0  0  0  0
  7  9  1  0  0  0  0
 10  9  1  0  0  0  0
 10 11  1  0  0  0  0
 22 10  1  0  0  0  0
 10 37  1  1  0  0  0
 12 11  1  0  0  0  0
 12 13  1  6  0  0  0
 12 14  1  0  0  0  0
 12 23  1  0  0  0  0
 13 38  1  0  0  0  0
 13 39  1  0  0  0  0
 13 40  1  0  0  0  0
 14 15  1  0  0  0  0
 14 41  1  0  0  0  0
 14 42  1  0  0  0  0
 16 15  1  0  0  0  0
 15 43  1  0  0  0  0
 15 44  1  0  0  0  0
 16 25  1  6  0  0  0
 16 17  1  0  0  0  0
 22 16  1  0  0  0  0
 17 18  1  0  0  0  0
 17 19  1  0  0  0  0
 17 45  1  6  0  0  0
 18 46  1  0  0  0  0
 18 47  1  0  0  0  0
 18 48  1  0  0  0  0
 19 20  1  0  0  0  0
 19 49  1  0  0  0  0
 19 50  1  0  0  0  0
 21 20  1  0  0  0  0
 20 51  1  0  0  0  0
 20 52  1  0  0  0  0
 22 21  1  0  0  0  0
 21 53  1  6  0  0  0
 22 23  1  6  0  0  0
M  END
