
  Mrv171c004271813302D          

 53 57  0  0  0  0            999 V2000
   -2.6584   -0.5674    0.0000 C   0  0  0  0  0  0  0  0  0  0  0  0
   -2.9470    0.2227    0.0000 C   0  0  0  0  0  0  0  0  0  0  0  0
   -2.2418    0.6803    0.0000 O   0  0  0  0  0  0  0  0  0  0  0  0
   -1.4270    0.4097    0.0000 C   0  0  2  0  0  0  0  0  0  0  0  0
   -0.4943    0.1890    0.0000 O   0  0  0  0  0  0  0  0  0  0  0  0
    0.3377    0.4019    0.0000 C   0  0  1  0  0  0  0  0  0  0  0  0
    1.0232    0.8610    0.0000 C   0  0  0  0  0  0  0  0  0  0  0  0
    0.9683    1.6842    0.0000 C   0  0  0  0  0  0  0  0  0  0  0  0
    1.6537    2.1433    0.0000 C   0  0  0  0  0  0  0  0  0  0  0  0
    1.5988    2.9665    0.0000 C   0  0  0  0  0  0  0  0  0  0  0  0
    2.2843    3.4256    0.0000 C   0  0  0  0  0  0  0  0  0  0  0  0
    3.0246    3.0615    0.0000 C   0  0  0  0  0  0  0  0  0  0  0  0
    3.0795    2.2384    0.0000 C   0  0  0  0  0  0  0  0  0  0  0  0
    2.3941    1.7793    0.0000 C   0  0  0  0  0  0  0  0  0  0  0  0
    0.8235   -0.2959    0.0000 C   0  0  0  0  0  0  0  0  0  0  0  0
    0.3347   -0.9849    0.0000 C   0  0  0  0  0  0  0  0  0  0  0  0
   -0.5228   -0.9961    0.0000 C   0  0  1  0  0  0  0  0  0  0  0  0
   -0.6392   -1.8434    0.0000 C   0  0  1  0  0  0  0  0  0  0  0  0
    0.0492   -2.2980    0.0000 C   0  0  0  0  0  0  0  0  0  0  0  0
   -1.3584   -2.2745    0.0000 C   0  0  0  0  0  0  0  0  0  0  0  0
   -1.9219   -1.6550    0.0000 C   0  0  0  0  0  0  0  0  0  0  0  0
   -1.8258   -0.8001    0.0000 C   0  0  2  0  0  0  0  0  0  0  0  0
   -1.0834   -0.3007    0.0000 C   0  0  1  0  0  0  0  0  0  0  0  0
   -0.8449    0.6502    0.0000 O   0  0  0  0  0  0  0  0  0  0  0  0
   -0.1187    1.1105    0.0000 O   0  0  0  0  0  0  0  0  0  0  0  0
   -3.4277   -0.8656    0.0000 H   0  0  0  0  0  0  0  0  0  0  0  0
   -2.8960   -1.3575    0.0000 H   0  0  0  0  0  0  0  0  0  0  0  0
   -0.1717   -0.2495    0.0000 H   0  0  0  0  0  0  0  0  0  0  0  0
   -3.5092    0.8264    0.0000 H   0  0  0  0  0  0  0  0  0  0  0  0
   -3.7592    0.0782    0.0000 H   0  0  0  0  0  0  0  0  0  0  0  0
   -1.4563    1.2341    0.0000 H   0  0  0  0  0  0  0  0  0  0  0  0
    1.5213    0.2034    0.0000 H   0  0  0  0  0  0  0  0  0  0  0  0
    1.8481    0.8679    0.0000 H   0  0  0  0  0  0  0  0  0  0  0  0
    0.4701    2.3418    0.0000 H   0  0  0  0  0  0  0  0  0  0  0  0
    0.1433    1.6773    0.0000 H   0  0  0  0  0  0  0  0  0  0  0  0
    0.8585    3.3305    0.0000 H   0  0  0  0  0  0  0  0  0  0  0  0
    2.2294    4.2488    0.0000 H   0  0  0  0  0  0  0  0  0  0  0  0
    3.7101    3.5207    0.0000 H   0  0  0  0  0  0  0  0  0  0  0  0
    3.8198    1.8743    0.0000 H   0  0  0  0  0  0  0  0  0  0  0  0
    2.4489    0.9561    0.0000 H   0  0  0  0  0  0  0  0  0  0  0  0
    1.0824   -1.0792    0.0000 H   0  0  0  0  0  0  0  0  0  0  0  0
    1.6078   -0.5517    0.0000 H   0  0  0  0  0  0  0  0  0  0  0  0
   -0.1013   -1.6853    0.0000 H   0  0  0  0  0  0  0  0  0  0  0  0
    0.6893   -1.7298    0.0000 H   0  0  0  0  0  0  0  0  0  0  0  0
   -1.3276   -1.3887    0.0000 H   0  0  0  0  0  0  0  0  0  0  0  0
   -0.6629   -2.7145    0.0000 H   0  0  0  0  0  0  0  0  0  0  0  0
    0.1079   -3.1209    0.0000 H   0  0  0  0  0  0  0  0  0  0  0  0
    0.8133   -2.6092    0.0000 H   0  0  0  0  0  0  0  0  0  0  0  0
   -2.0850   -2.6654    0.0000 H   0  0  0  0  0  0  0  0  0  0  0  0
   -1.6175   -3.0578    0.0000 H   0  0  0  0  0  0  0  0  0  0  0  0
   -2.7399   -1.5477    0.0000 H   0  0  0  0  0  0  0  0  0  0  0  0
   -2.5219   -2.2213    0.0000 H   0  0  0  0  0  0  0  0  0  0  0  0
   -1.9571    0.0144    0.0000 H   0  0  0  0  0  0  0  0  0  0  0  0
  1 26  1  0  0  0  0
  1 27  1  0  0  0  0
  1  2  1  0  0  0  0
 22  1  1  0  0  0  0
  2  3  1  0  0  0  0
  2 29  1  0  0  0  0
  2 30  1  0  0  0  0
  4  3  1  0  0  0  0
  4  5  1  0  0  0  0
 23  4  1  0  0  0  0
  4 31  1  1  0  0  0
  6  5  1  0  0  0  0
  6  7  1  1  0  0  0
  6 15  1  0  0  0  0
  6 25  1  0  0  0  0
  7  8  1  0  0  0  0
  7 32  1  0  0  0  0
  7 33  1  0  0  0  0
  8  9  1  0  0  0  0
  8 34  1  0  0  0  0
  8 35  1  0  0  0  0
  9 10  1  0  0  0  0
  9 14  2  0  0  0  0
 10 11  2  0  0  0  0
 10 36  1  0  0  0  0
 11 12  1  0  0  0  0
 11 37  1  0  0  0  0
 12 13  2  0  0  0  0
 12 38  1  0  0  0  0
 13 14  1  0  0  0  0
 13 39  1  0  0  0  0
 14 40  1  0  0  0  0
 15 16  1  0  0  0  0
 15 41  1  0  0  0  0
 15 42  1  0  0  0  0
 17 16  1  0  0  0  0
 16 43  1  0  0  0  0
 16 44  1  0  0  0  0
 17 28  1  6  0  0  0
 17 18  1  0  0  0  0
 23 17  1  0  0  0  0
 18 19  1  0  0  0  0
 18 20  1  1  0  0  0
 18 45  1  6  0  0  0
 19 46  1  0  0  0  0
 19 47  1  0  0  0  0
 19 48  1  0  0  0  0
 20 21  1  0  0  0  0
 20 49  1  0  0  0  0
 20 50  1  0  0  0  0
 22 21  1  0  0  0  0
 21 51  1  0  0  0  0
 21 52  1  0  0  0  0
 23 22  1  0  0  0  0
 22 53  1  6  0  0  0
 23 24  1  6  0  0  0
 24 25  1  0  0  0  0
M  END
