
  Mrv171c004271813302D          

 71 77  0  0  0  0            999 V2000
   -2.7936   -2.3924    0.0000 C   0  0  0  0  0  0  0  0  0  0  0  0
   -2.2859   -1.7421    0.0000 C   0  0  1  0  0  0  0  0  0  0  0  0
   -2.6587   -0.9910    0.0000 C   0  0  0  0  0  0  0  0  0  0  0  0
   -1.9966   -0.4783    0.0000 C   0  0  0  0  0  0  0  0  0  0  0  0
   -1.1519   -0.6418    0.0000 C   0  0  1  0  0  0  0  0  0  0  0  0
   -0.8541    0.1698    0.0000 C   0  0  1  0  0  0  0  0  0  0  0  0
   -1.4134    0.7762    0.0000 C   0  0  0  0  0  0  0  0  0  0  0  0
   -0.0436    0.3948    0.0000 C   0  0  1  0  0  0  0  0  0  0  0  0
    0.2790    1.1542    0.0000 O   0  0  0  0  0  0  0  0  0  0  0  0
    1.0979    1.2544    0.0000 C   0  0  0  0  0  0  0  0  0  0  0  0
    1.4204    2.0138    0.0000 C   0  0  1  0  0  0  0  0  0  0  0  0
    0.5975    1.9574    0.0000 C   0  0  0  0  0  0  0  0  0  0  0  0
    1.3201    2.5090    0.0000 C   0  0  2  0  0  0  0  0  0  0  0  0
    1.6124    3.1969    0.0000 C   0  0  0  0  0  0  0  0  0  0  0  0
    2.4355    3.2532    0.0000 C   0  0  1  0  0  0  0  0  0  0  0  0
    2.9664    2.6216    0.0000 C   0  0  0  0  0  0  0  0  0  0  0  0
    2.6741    1.9337    0.0000 C   0  0  1  0  0  0  0  0  0  0  0  0
    1.8509    1.8775    0.0000 C   0  0  0  0  0  0  0  0  0  0  0  0
    1.9513    1.3822    0.0000 C   0  0  0  0  0  0  0  0  0  0  0  0
    1.7127    2.7016    0.0000 C   0  0  0  0  0  0  0  0  0  0  0  0
    0.3568   -0.3443    0.0000 O   0  0  0  0  0  0  0  0  0  0  0  0
    0.0225   -1.1352    0.0000 C   0  0  2  0  0  0  0  0  0  0  0  0
   -0.2714   -2.0474    0.0000 O   0  0  0  0  0  0  0  0  0  0  0  0
   -0.1250   -2.8937    0.0000 C   0  0  1  0  0  0  0  0  0  0  0  0
    0.2784   -3.6134    0.0000 C   0  0  0  0  0  0  0  0  0  0  0  0
   -0.8590   -3.3227    0.0000 C   0  0  0  0  0  0  0  0  0  0  0  0
   -1.5072   -2.7809    0.0000 C   0  0  0  0  0  0  0  0  0  0  0  0
   -1.4504   -1.9252    0.0000 C   0  0  2  0  0  0  0  0  0  0  0  0
   -0.7128   -1.4214    0.0000 C   0  0  1  0  0  0  0  0  0  0  0  0
    0.2161   -1.7345    0.0000 O   0  0  0  0  0  0  0  0  0  0  0  0
    0.6176   -2.4948    0.0000 O   0  0  0  0  0  0  0  0  0  0  0  0
   -1.6632    0.0086    0.0000 H   0  0  0  0  0  0  0  0  0  0  0  0
   -1.6077   -1.1154    0.0000 H   0  0  0  0  0  0  0  0  0  0  0  0
   -3.4438   -1.8847    0.0000 H   0  0  0  0  0  0  0  0  0  0  0  0
   -3.3013   -3.0427    0.0000 H   0  0  0  0  0  0  0  0  0  0  0  0
   -2.1433   -2.9001    0.0000 H   0  0  0  0  0  0  0  0  0  0  0  0
   -2.0060   -2.5182    0.0000 H   0  0  0  0  0  0  0  0  0  0  0  0
   -3.2751   -0.4426    0.0000 H   0  0  0  0  0  0  0  0  0  0  0  0
   -3.4525   -1.2159    0.0000 H   0  0  0  0  0  0  0  0  0  0  0  0
   -1.8248    0.3286    0.0000 H   0  0  0  0  0  0  0  0  0  0  0  0
   -2.5136    0.1646    0.0000 H   0  0  0  0  0  0  0  0  0  0  0  0
   -0.3296   -0.5754    0.0000 H   0  0  0  0  0  0  0  0  0  0  0  0
   -0.6451    1.0768    0.0000 H   0  0  0  0  0  0  0  0  0  0  0  0
   -1.4141    1.6012    0.0000 H   0  0  0  0  0  0  0  0  0  0  0  0
   -2.1822    1.0755    0.0000 H   0  0  0  0  0  0  0  0  0  0  0  0
    0.7805    0.4339    0.0000 H   0  0  0  0  0  0  0  0  0  0  0  0
    1.3629    0.4732    0.0000 H   0  0  0  0  0  0  0  0  0  0  0  0
    1.8022    0.8249    0.0000 H   0  0  0  0  0  0  0  0  0  0  0  0
    0.1923    2.6761    0.0000 H   0  0  0  0  0  0  0  0  0  0  0  0
   -0.2041    2.1527    0.0000 H   0  0  0  0  0  0  0  0  0  0  0  0
    0.6686    3.0151    0.0000 H   0  0  0  0  0  0  0  0  0  0  0  0
    1.8032    3.9996    0.0000 H   0  0  0  0  0  0  0  0  0  0  0  0
    1.2228    3.9241    0.0000 H   0  0  0  0  0  0  0  0  0  0  0  0
    2.7581    4.0125    0.0000 H   0  0  0  0  0  0  0  0  0  0  0  0
    3.7488    2.3599    0.0000 H   0  0  0  0  0  0  0  0  0  0  0  0
    3.6378    3.1009    0.0000 H   0  0  0  0  0  0  0  0  0  0  0  0
    3.3256    1.4277    0.0000 H   0  0  0  0  0  0  0  0  0  0  0  0
    2.5202    2.3598    0.0000 H   0  0  0  0  0  0  0  0  0  0  0  0
    2.1647    2.6405    0.0000 H   0  0  0  0  0  0  0  0  0  0  0  0
    2.3941    0.6861    0.0000 H   0  0  0  0  0  0  0  0  0  0  0  0
    2.7636    1.2376    0.0000 H   0  0  0  0  0  0  0  0  0  0  0  0
    2.5103    2.9127    0.0000 H   0  0  0  0  0  0  0  0  0  0  0  0
    0.9726    3.0660    0.0000 H   0  0  0  0  0  0  0  0  0  0  0  0
    0.8467   -1.1712    0.0000 H   0  0  0  0  0  0  0  0  0  0  0  0
   -0.4412   -4.0168    0.0000 H   0  0  0  0  0  0  0  0  0  0  0  0
    0.6818   -4.3330    0.0000 H   0  0  0  0  0  0  0  0  0  0  0  0
    0.9981   -3.2099    0.0000 H   0  0  0  0  0  0  0  0  0  0  0  0
   -1.6603   -3.5189    0.0000 H   0  0  0  0  0  0  0  0  0  0  0  0
   -1.1760   -4.0844    0.0000 H   0  0  0  0  0  0  0  0  0  0  0  0
   -0.6828   -2.7501    0.0000 H   0  0  0  0  0  0  0  0  0  0  0  0
   -0.9155   -2.2060    0.0000 H   0  0  0  0  0  0  0  0  0  0  0  0
  2  1  1  1  0  0  0
  1 34  1  0  0  0  0
  1 35  1  0  0  0  0
  1 36  1  0  0  0  0
  2  3  1  0  0  0  0
 28  2  1  0  0  0  0
  2 37  1  6  0  0  0
  3  4  1  0  0  0  0
  3 38  1  0  0  0  0
  3 39  1  0  0  0  0
  5  4  1  0  0  0  0
  4 40  1  0  0  0  0
  4 41  1  0  0  0  0
  5  6  1  0  0  0  0
 29  5  1  0  0  0  0
  5 42  1  6  0  0  0
  6 32  1  6  0  0  0
  6  7  1  1  0  0  0
  6  8  1  0  0  0  0
  7 43  1  0  0  0  0
  7 44  1  0  0  0  0
  7 45  1  0  0  0  0
  8  9  1  1  0  0  0
  8 21  1  0  0  0  0
  8 46  1  6  0  0  0
  9 10  1  0  0  0  0
 11 10  1  6  0  0  0
 10 47  1  0  0  0  0
 10 48  1  0  0  0  0
 11 12  1  0  0  0  0
 11 19  1  0  0  0  0
 11 20  1  0  0  0  0
 13 12  1  0  0  0  0
 12 49  1  0  0  0  0
 12 50  1  0  0  0  0
 13 14  1  0  0  0  0
 13 18  1  0  0  0  0
 13 51  1  1  0  0  0
 15 14  1  0  0  0  0
 14 52  1  0  0  0  0
 14 53  1  0  0  0  0
 15 16  1  0  0  0  0
 15 20  1  0  0  0  0
 15 54  1  6  0  0  0
 17 16  1  0  0  0  0
 16 55  1  0  0  0  0
 16 56  1  0  0  0  0
 17 18  1  0  0  0  0
 17 19  1  0  0  0  0
 17 57  1  1  0  0  0
 18 58  1  0  0  0  0
 18 59  1  0  0  0  0
 19 60  1  0  0  0  0
 19 61  1  0  0  0  0
 20 62  1  0  0  0  0
 20 63  1  0  0  0  0
 22 21  1  0  0  0  0
 22 23  1  0  0  0  0
 29 22  1  0  0  0  0
 22 64  1  1  0  0  0
 24 23  1  0  0  0  0
 24 25  1  1  0  0  0
 24 26  1  0  0  0  0
 24 31  1  0  0  0  0
 25 65  1  0  0  0  0
 25 66  1  0  0  0  0
 25 67  1  0  0  0  0
 26 27  1  0  0  0  0
 26 68  1  0  0  0  0
 26 69  1  0  0  0  0
 28 27  1  0  0  0  0
 27 70  1  0  0  0  0
 27 71  1  0  0  0  0
 28 33  1  6  0  0  0
 29 28  1  0  0  0  0
 29 30  1  6  0  0  0
 30 31  1  0  0  0  0
M  END
