
  Mrv171c004271813302D          

 49 52  0  0  0  0            999 V2000
   -2.0981   -1.7330    0.0000 C   0  0  0  0  0  0  0  0  0  0  0  0
   -1.5378   -1.1274    0.0000 C   0  0  0  0  0  0  0  0  0  0  0  0
   -1.7821   -0.3394    0.0000 C   0  0  0  0  0  0  0  0  0  0  0  0
   -1.2218    0.2662    0.0000 C   0  0  1  0  0  0  0  0  0  0  0  0
   -1.5104    1.0563    0.0000 C   0  0  0  0  0  0  0  0  0  0  0  0
   -0.8052    1.5139    0.0000 O   0  0  0  0  0  0  0  0  0  0  0  0
    0.0096    1.2433    0.0000 C   0  0  2  0  0  0  0  0  0  0  0  0
    0.9423    1.0226    0.0000 O   0  0  0  0  0  0  0  0  0  0  0  0
    1.7743    1.2355    0.0000 C   0  0  1  0  0  0  0  0  0  0  0  0
    2.4598    1.6947    0.0000 C   0  0  0  0  0  0  0  0  0  0  0  0
    2.2601    0.5378    0.0000 C   0  0  0  0  0  0  0  0  0  0  0  0
    1.7713   -0.1513    0.0000 C   0  0  0  0  0  0  0  0  0  0  0  0
    0.9138   -0.1624    0.0000 C   0  0  1  0  0  0  0  0  0  0  0  0
    0.7974   -1.0097    0.0000 C   0  0  1  0  0  0  0  0  0  0  0  0
    1.4858   -1.4644    0.0000 C   0  0  0  0  0  0  0  0  0  0  0  0
    0.0782   -1.4409    0.0000 C   0  0  0  0  0  0  0  0  0  0  0  0
   -0.4853   -0.8214    0.0000 C   0  0  0  0  0  0  0  0  0  0  0  0
   -0.3892    0.0335    0.0000 C   0  0  2  0  0  0  0  0  0  0  0  0
    0.3532    0.5330    0.0000 C   0  0  1  0  0  0  0  0  0  0  0  0
    0.5917    1.4838    0.0000 O   0  0  0  0  0  0  0  0  0  0  0  0
    1.3179    1.9442    0.0000 O   0  0  0  0  0  0  0  0  0  0  0  0
   -0.9971   -0.5276    0.0000 H   0  0  0  0  0  0  0  0  0  0  0  0
    1.2649    0.5841    0.0000 H   0  0  0  0  0  0  0  0  0  0  0  0
   -2.7036   -1.1727    0.0000 H   0  0  0  0  0  0  0  0  0  0  0  0
   -2.6584   -2.3385    0.0000 H   0  0  0  0  0  0  0  0  0  0  0  0
   -1.4925   -2.2932    0.0000 H   0  0  0  0  0  0  0  0  0  0  0  0
   -0.9007   -1.6515    0.0000 H   0  0  0  0  0  0  0  0  0  0  0  0
   -0.7369   -0.9293    0.0000 H   0  0  0  0  0  0  0  0  0  0  0  0
   -2.4192    0.1847    0.0000 H   0  0  0  0  0  0  0  0  0  0  0  0
   -2.5830   -0.5375    0.0000 H   0  0  0  0  0  0  0  0  0  0  0  0
   -2.0726    1.6601    0.0000 H   0  0  0  0  0  0  0  0  0  0  0  0
   -2.3226    0.9118    0.0000 H   0  0  0  0  0  0  0  0  0  0  0  0
   -0.0197    2.0678    0.0000 H   0  0  0  0  0  0  0  0  0  0  0  0
    2.9189    1.0092    0.0000 H   0  0  0  0  0  0  0  0  0  0  0  0
    3.1452    2.1538    0.0000 H   0  0  0  0  0  0  0  0  0  0  0  0
    2.0007    2.3801    0.0000 H   0  0  0  0  0  0  0  0  0  0  0  0
    2.5191   -0.2455    0.0000 H   0  0  0  0  0  0  0  0  0  0  0  0
    3.0444    0.2820    0.0000 H   0  0  0  0  0  0  0  0  0  0  0  0
    1.3354   -0.8517    0.0000 H   0  0  0  0  0  0  0  0  0  0  0  0
    2.1259   -0.8961    0.0000 H   0  0  0  0  0  0  0  0  0  0  0  0
    0.1090   -0.5551    0.0000 H   0  0  0  0  0  0  0  0  0  0  0  0
    0.7737   -1.8808    0.0000 H   0  0  0  0  0  0  0  0  0  0  0  0
    1.5445   -2.2873    0.0000 H   0  0  0  0  0  0  0  0  0  0  0  0
    2.2499   -1.7756    0.0000 H   0  0  0  0  0  0  0  0  0  0  0  0
   -0.6514   -1.8259    0.0000 H   0  0  0  0  0  0  0  0  0  0  0  0
    0.0458   -2.2653    0.0000 H   0  0  0  0  0  0  0  0  0  0  0  0
   -0.8581   -0.0854    0.0000 H   0  0  0  0  0  0  0  0  0  0  0  0
    0.3223   -0.9899    0.0000 H   0  0  0  0  0  0  0  0  0  0  0  0
   -0.5205    0.8480    0.0000 H   0  0  0  0  0  0  0  0  0  0  0  0
  1  2  1  0  0  0  0
  1 24  1  0  0  0  0
  1 25  1  0  0  0  0
  1 26  1  0  0  0  0
  2  3  1  0  0  0  0
  2 27  1  0  0  0  0
  2 28  1  0  0  0  0
  4  3  1  1  0  0  0
  3 29  1  0  0  0  0
  3 30  1  0  0  0  0
  4 22  1  6  0  0  0
  4  5  1  0  0  0  0
 18  4  1  0  0  0  0
  5  6  1  0  0  0  0
  5 31  1  0  0  0  0
  5 32  1  0  0  0  0
  7  6  1  0  0  0  0
  7  8  1  0  0  0  0
 19  7  1  0  0  0  0
  7 33  1  1  0  0  0
  9  8  1  0  0  0  0
  9 10  1  1  0  0  0
  9 11  1  0  0  0  0
  9 21  1  0  0  0  0
 10 34  1  0  0  0  0
 10 35  1  0  0  0  0
 10 36  1  0  0  0  0
 11 12  1  0  0  0  0
 11 37  1  0  0  0  0
 11 38  1  0  0  0  0
 13 12  1  0  0  0  0
 12 39  1  0  0  0  0
 12 40  1  0  0  0  0
 13 23  1  6  0  0  0
 13 14  1  0  0  0  0
 19 13  1  0  0  0  0
 14 15  1  0  0  0  0
 14 16  1  1  0  0  0
 14 41  1  6  0  0  0
 15 42  1  0  0  0  0
 15 43  1  0  0  0  0
 15 44  1  0  0  0  0
 16 17  1  0  0  0  0
 16 45  1  0  0  0  0
 16 46  1  0  0  0  0
 18 17  1  0  0  0  0
 17 47  1  0  0  0  0
 17 48  1  0  0  0  0
 19 18  1  0  0  0  0
 18 49  1  6  0  0  0
 19 20  1  6  0  0  0
 20 21  1  0  0  0  0
M  END
