
  Mrv171c004271813302D          

 51 54  0  0  0  0            999 V2000
   -3.1686   -2.1024    0.0000 C   0  0  0  0  0  0  0  0  0  0  0  0
   -2.4541   -1.6899    0.0000 C   0  0  0  0  0  0  0  0  0  0  0  0
   -1.7397   -2.1024    0.0000 O   0  0  0  0  0  0  0  0  0  0  0  0
   -1.0252   -1.6899    0.0000 C   0  0  0  0  0  0  0  0  0  0  0  0
   -1.0252   -0.8649    0.0000 O   0  0  0  0  0  0  0  0  0  0  0  0
   -0.3107   -2.1024    0.0000 C   0  0  0  0  0  0  0  0  0  0  0  0
    0.4038   -1.6899    0.0000 C   0  0  0  0  0  0  0  0  0  0  0  0
    0.4038   -0.8649    0.0000 C   0  0  1  0  0  0  0  0  0  0  0  0
    1.2579   -0.7732    0.0000 C   0  0  0  0  0  0  0  0  0  0  0  0
    1.6230   -0.0069    0.0000 C   0  0  0  0  0  0  0  0  0  0  0  0
    1.0573    0.6474    0.0000 C   0  0  1  0  0  0  0  0  0  0  0  0
    1.5343    1.3297    0.0000 C   0  0  1  0  0  0  0  0  0  0  0  0
    2.3573    1.2723    0.0000 C   0  0  0  0  0  0  0  0  0  0  0  0
    1.1620    2.0609    0.0000 C   0  0  0  0  0  0  0  0  0  0  0  0
    0.3362    2.1119    0.0000 C   0  0  0  0  0  0  0  0  0  0  0  0
   -0.1404    1.4162    0.0000 C   0  0  1  0  0  0  0  0  0  0  0  0
   -0.9479    1.6641    0.0000 C   0  0  0  0  0  0  0  0  0  0  0  0
   -1.5628    1.1084    0.0000 C   0  0  0  0  0  0  0  0  0  0  0  0
   -1.3938    0.3043    0.0000 O   0  0  0  0  0  0  0  0  0  0  0  0
   -0.5978    0.0785    0.0000 C   0  0  2  0  0  0  0  0  0  0  0  0
   -0.4465   -0.7736    0.0000 O   0  0  0  0  0  0  0  0  0  0  0  0
    0.1476    0.5985    0.0000 C   0  0  1  0  0  0  0  0  0  0  0  0
    0.3270   -0.1076    0.0000 O   0  0  0  0  0  0  0  0  0  0  0  0
    0.6566    1.3686    0.0000 H   0  0  0  0  0  0  0  0  0  0  0  0
   -3.5811   -1.3879    0.0000 H   0  0  0  0  0  0  0  0  0  0  0  0
   -3.8831   -2.5149    0.0000 H   0  0  0  0  0  0  0  0  0  0  0  0
   -2.7561   -2.8168    0.0000 H   0  0  0  0  0  0  0  0  0  0  0  0
   -2.0839   -0.9526    0.0000 H   0  0  0  0  0  0  0  0  0  0  0  0
   -2.8244   -0.9526    0.0000 H   0  0  0  0  0  0  0  0  0  0  0  0
   -0.6810   -2.8396    0.0000 H   0  0  0  0  0  0  0  0  0  0  0  0
    0.0595   -2.8396    0.0000 H   0  0  0  0  0  0  0  0  0  0  0  0
    0.8571   -2.3792    0.0000 H   0  0  0  0  0  0  0  0  0  0  0  0
    1.2274   -1.7378    0.0000 H   0  0  0  0  0  0  0  0  0  0  0  0
    2.0596   -0.9678    0.0000 H   0  0  0  0  0  0  0  0  0  0  0  0
    0.7808   -0.1001    0.0000 H   0  0  0  0  0  0  0  0  0  0  0  0
    2.3998   -0.2847    0.0000 H   0  0  0  0  0  0  0  0  0  0  0  0
    2.2983    0.4670    0.0000 H   0  0  0  0  0  0  0  0  0  0  0  0
    1.8898    0.5852    0.0000 H   0  0  0  0  0  0  0  0  0  0  0  0
    3.0947    0.9024    0.0000 H   0  0  0  0  0  0  0  0  0  0  0  0
    2.9807    1.8126    0.0000 H   0  0  0  0  0  0  0  0  0  0  0  0
    2.0960    2.0548    0.0000 H   0  0  0  0  0  0  0  0  0  0  0  0
    1.5922    2.7649    0.0000 H   0  0  0  0  0  0  0  0  0  0  0  0
    0.7808    2.7926    0.0000 H   0  0  0  0  0  0  0  0  0  0  0  0
   -0.0310    2.8506    0.0000 H   0  0  0  0  0  0  0  0  0  0  0  0
   -0.4868    2.1693    0.0000 H   0  0  0  0  0  0  0  0  0  0  0  0
   -0.7117    0.8211    0.0000 H   0  0  0  0  0  0  0  0  0  0  0  0
   -1.1722    2.4580    0.0000 H   0  0  0  0  0  0  0  0  0  0  0  0
   -1.7407    1.8924    0.0000 H   0  0  0  0  0  0  0  0  0  0  0  0
   -2.3496    1.3568    0.0000 H   0  0  0  0  0  0  0  0  0  0  0  0
   -2.1743    0.5545    0.0000 H   0  0  0  0  0  0  0  0  0  0  0  0
   -1.2098   -0.4748    0.0000 H   0  0  0  0  0  0  0  0  0  0  0  0
  1  2  1  0  0  0  0
  1 25  1  0  0  0  0
  1 26  1  0  0  0  0
  1 27  1  0  0  0  0
  2  3  1  0  0  0  0
  2 28  1  0  0  0  0
  2 29  1  0  0  0  0
  3  4  1  0  0  0  0
  4  5  2  0  0  0  0
  4  6  1  0  0  0  0
  6  7  1  0  0  0  0
  6 30  1  0  0  0  0
  6 31  1  0  0  0  0
  8  7  1  1  0  0  0
  7 32  1  0  0  0  0
  7 33  1  0  0  0  0
  8  9  1  0  0  0  0
  8 21  1  0  0  0  0
  8 23  1  0  0  0  0
  9 10  1  0  0  0  0
  9 34  1  0  0  0  0
  9 35  1  0  0  0  0
 11 10  1  0  0  0  0
 10 36  1  0  0  0  0
 10 37  1  0  0  0  0
 11 24  1  1  0  0  0
 11 12  1  0  0  0  0
 22 11  1  0  0  0  0
 12 13  1  0  0  0  0
 12 14  1  0  0  0  0
 12 38  1  1  0  0  0
 13 39  1  0  0  0  0
 13 40  1  0  0  0  0
 13 41  1  0  0  0  0
 14 15  1  0  0  0  0
 14 42  1  0  0  0  0
 14 43  1  0  0  0  0
 16 15  1  0  0  0  0
 15 44  1  0  0  0  0
 15 45  1  0  0  0  0
 16 17  1  0  0  0  0
 22 16  1  0  0  0  0
 16 46  1  1  0  0  0
 17 18  1  0  0  0  0
 17 47  1  0  0  0  0
 17 48  1  0  0  0  0
 18 19  1  0  0  0  0
 18 49  1  0  0  0  0
 18 50  1  0  0  0  0
 20 19  1  0  0  0  0
 20 21  1  0  0  0  0
 22 20  1  0  0  0  0
 20 51  1  6  0  0  0
 22 23  1  1  0  0  0
M  END
