
  Mrv171c004271813302D          

 40 43  0  0  0  0            999 V2000
   -2.4885   -0.1427    0.0000 C   0  0  0  0  0  0  0  0  0  0  0  0
   -1.9282    0.4629    0.0000 C   0  0  0  0  0  0  0  0  0  0  0  0
   -2.2167    1.2530    0.0000 C   0  0  0  0  0  0  0  0  0  0  0  0
   -2.9992    1.5145    0.0000 O   0  0  0  0  0  0  0  0  0  0  0  0
   -1.5116    1.7107    0.0000 O   0  0  0  0  0  0  0  0  0  0  0  0
   -0.6967    1.4400    0.0000 C   0  0  2  0  0  0  0  0  0  0  0  0
    0.2359    1.2193    0.0000 O   0  0  0  0  0  0  0  0  0  0  0  0
    1.0680    1.4323    0.0000 C   0  0  1  0  0  0  0  0  0  0  0  0
    1.7534    1.8914    0.0000 C   0  0  0  0  0  0  0  0  0  0  0  0
    1.5537    0.7345    0.0000 C   0  0  0  0  0  0  0  0  0  0  0  0
    1.0649    0.0455    0.0000 C   0  0  0  0  0  0  0  0  0  0  0  0
    0.2075    0.0343    0.0000 C   0  0  1  0  0  0  0  0  0  0  0  0
    0.0910   -0.8130    0.0000 C   0  0  1  0  0  0  0  0  0  0  0  0
    0.7795   -1.2676    0.0000 C   0  0  0  0  0  0  0  0  0  0  0  0
   -0.6282   -1.2442    0.0000 C   0  0  0  0  0  0  0  0  0  0  0  0
   -1.1917   -0.6247    0.0000 C   0  0  0  0  0  0  0  0  0  0  0  0
   -1.0955    0.2302    0.0000 C   0  0  2  0  0  0  0  0  0  0  0  0
   -0.3532    0.7297    0.0000 C   0  0  1  0  0  0  0  0  0  0  0  0
   -0.1146    1.6805    0.0000 O   0  0  0  0  0  0  0  0  0  0  0  0
    0.6116    2.1409    0.0000 O   0  0  0  0  0  0  0  0  0  0  0  0
    0.5586    0.7808    0.0000 H   0  0  0  0  0  0  0  0  0  0  0  0
   -3.2930    0.0398    0.0000 H   0  0  0  0  0  0  0  0  0  0  0  0
   -2.2442   -0.9307    0.0000 H   0  0  0  0  0  0  0  0  0  0  0  0
   -0.7261    2.2645    0.0000 H   0  0  0  0  0  0  0  0  0  0  0  0
    2.2125    1.2059    0.0000 H   0  0  0  0  0  0  0  0  0  0  0  0
    2.4389    2.3505    0.0000 H   0  0  0  0  0  0  0  0  0  0  0  0
    1.2943    2.5768    0.0000 H   0  0  0  0  0  0  0  0  0  0  0  0
    1.8127   -0.0488    0.0000 H   0  0  0  0  0  0  0  0  0  0  0  0
    2.3381    0.4788    0.0000 H   0  0  0  0  0  0  0  0  0  0  0  0
    0.6290   -0.6550    0.0000 H   0  0  0  0  0  0  0  0  0  0  0  0
    1.4196   -0.6994    0.0000 H   0  0  0  0  0  0  0  0  0  0  0  0
   -0.5974   -0.3584    0.0000 H   0  0  0  0  0  0  0  0  0  0  0  0
    0.0673   -1.6841    0.0000 H   0  0  0  0  0  0  0  0  0  0  0  0
    0.8381   -2.0905    0.0000 H   0  0  0  0  0  0  0  0  0  0  0  0
    1.5435   -1.5789    0.0000 H   0  0  0  0  0  0  0  0  0  0  0  0
   -1.3547   -1.6350    0.0000 H   0  0  0  0  0  0  0  0  0  0  0  0
   -0.8872   -2.0274    0.0000 H   0  0  0  0  0  0  0  0  0  0  0  0
   -2.0097   -0.5173    0.0000 H   0  0  0  0  0  0  0  0  0  0  0  0
   -1.7916   -1.1910    0.0000 H   0  0  0  0  0  0  0  0  0  0  0  0
   -1.2269    1.0447    0.0000 H   0  0  0  0  0  0  0  0  0  0  0  0
  1  2  2  0  0  0  0
  1 22  1  0  0  0  0
  1 23  1  0  0  0  0
  2  3  1  0  0  0  0
 17  2  1  0  0  0  0
  3  4  2  0  0  0  0
  3  5  1  0  0  0  0
  6  5  1  0  0  0  0
  6  7  1  0  0  0  0
 18  6  1  0  0  0  0
  6 24  1  1  0  0  0
  8  7  1  0  0  0  0
  8  9  1  1  0  0  0
  8 10  1  0  0  0  0
  8 20  1  0  0  0  0
  9 25  1  0  0  0  0
  9 26  1  0  0  0  0
  9 27  1  0  0  0  0
 10 11  1  0  0  0  0
 10 28  1  0  0  0  0
 10 29  1  0  0  0  0
 12 11  1  0  0  0  0
 11 30  1  0  0  0  0
 11 31  1  0  0  0  0
 12 21  1  6  0  0  0
 12 13  1  0  0  0  0
 18 12  1  0  0  0  0
 13 14  1  0  0  0  0
 13 15  1  1  0  0  0
 13 32  1  6  0  0  0
 14 33  1  0  0  0  0
 14 34  1  0  0  0  0
 14 35  1  0  0  0  0
 15 16  1  0  0  0  0
 15 36  1  0  0  0  0
 15 37  1  0  0  0  0
 17 16  1  0  0  0  0
 16 38  1  0  0  0  0
 16 39  1  0  0  0  0
 18 17  1  0  0  0  0
 17 40  1  6  0  0  0
 18 19  1  6  0  0  0
 19 20  1  0  0  0  0
M  END
