
  Mrv171c004271813302D          

 44 46  0  0  0  0            999 V2000
   -1.4539    1.9853    0.0000 C   0  0  0  0  0  0  0  0  0  0  0  0
   -1.8585    1.2663    0.0000 C   0  0  0  0  0  0  0  0  0  0  0  0
   -1.4381    0.5564    0.0000 C   0  0  0  0  0  0  0  0  0  0  0  0
   -2.1719    0.1793    0.0000 C   0  0  0  0  0  0  0  0  0  0  0  0
   -2.2121   -0.6448    0.0000 C   0  0  0  0  0  0  0  0  0  0  0  0
   -0.7424    1.0268    0.0000 O   0  0  0  0  0  0  0  0  0  0  0  0
   -0.2446    0.3706    0.0000 O   0  0  0  0  0  0  0  0  0  0  0  0
    0.3961   -0.2224    0.0000 C   0  0  1  0  0  0  0  0  0  0  0  0
    0.4385    0.6015    0.0000 C   0  0  0  0  0  0  0  0  0  0  0  0
    1.1732    0.9768    0.0000 C   0  0  0  0  0  0  0  0  0  0  0  0
    1.8655    0.5282    0.0000 C   0  0  0  0  0  0  0  0  0  0  0  0
    1.8232   -0.2958    0.0000 C   0  0  0  0  0  0  0  0  0  0  0  0
    1.0885   -0.6710    0.0000 C   0  0  2  0  0  0  0  0  0  0  0  0
    1.0462   -1.4950    0.0000 C   0  0  1  0  0  0  0  0  0  0  0  0
    1.7385   -1.9436    0.0000 C   0  0  0  0  0  0  0  0  0  0  0  0
    0.3115   -1.8702    0.0000 C   0  0  0  0  0  0  0  0  0  0  0  0
    0.2691   -2.6942    0.0000 O   0  0  0  0  0  0  0  0  0  0  0  0
   -0.3809   -1.4216    0.0000 O   0  0  0  0  0  0  0  0  0  0  0  0
   -0.3386   -0.5977    0.0000 C   0  0  1  0  0  0  0  0  0  0  0  0
   -1.0977   -0.2165    0.0000 O   0  0  0  0  0  0  0  0  0  0  0  0
    1.0038   -2.3189    0.0000 H   0  0  0  0  0  0  0  0  0  0  0  0
   -0.7350    1.5807    0.0000 H   0  0  0  0  0  0  0  0  0  0  0  0
   -1.0494    2.7042    0.0000 H   0  0  0  0  0  0  0  0  0  0  0  0
   -2.1729    2.3898    0.0000 H   0  0  0  0  0  0  0  0  0  0  0  0
   -2.5998    1.6283    0.0000 H   0  0  0  0  0  0  0  0  0  0  0  0
   -2.5916    0.8879    0.0000 H   0  0  0  0  0  0  0  0  0  0  0  0
   -2.9727   -0.0192    0.0000 H   0  0  0  0  0  0  0  0  0  0  0  0
   -1.4784   -0.2676    0.0000 H   0  0  0  0  0  0  0  0  0  0  0  0
   -2.9977   -0.3926    0.0000 H   0  0  0  0  0  0  0  0  0  0  0  0
   -2.6590   -1.3383    0.0000 H   0  0  0  0  0  0  0  0  0  0  0  0
   -1.6579   -1.2559    0.0000 H   0  0  0  0  0  0  0  0  0  0  0  0
    0.1179    1.3617    0.0000 H   0  0  0  0  0  0  0  0  0  0  0  0
    1.1308    0.1529    0.0000 H   0  0  0  0  0  0  0  0  0  0  0  0
    1.5808    1.6941    0.0000 H   0  0  0  0  0  0  0  0  0  0  0  0
    0.8412    1.7321    0.0000 H   0  0  0  0  0  0  0  0  0  0  0  0
    2.6905    0.5338    0.0000 H   0  0  0  0  0  0  0  0  0  0  0  0
    2.3537    1.1933    0.0000 H   0  0  0  0  0  0  0  0  0  0  0  0
    2.2406   -1.0074    0.0000 H   0  0  0  0  0  0  0  0  0  0  0  0
    2.6433   -0.3859    0.0000 H   0  0  0  0  0  0  0  0  0  0  0  0
    0.3538   -1.0463    0.0000 H   0  0  0  0  0  0  0  0  0  0  0  0
    1.9109   -2.7504    0.0000 H   0  0  0  0  0  0  0  0  0  0  0  0
    2.5624   -1.9859    0.0000 H   0  0  0  0  0  0  0  0  0  0  0  0
    1.9927   -1.1587    0.0000 H   0  0  0  0  0  0  0  0  0  0  0  0
   -1.0516   -1.0127    0.0000 H   0  0  0  0  0  0  0  0  0  0  0  0
  1  2  1  0  0  0  0
  1 22  1  0  0  0  0
  1 23  1  0  0  0  0
  1 24  1  0  0  0  0
  2  3  1  0  0  0  0
  2 25  1  0  0  0  0
  2 26  1  0  0  0  0
  3  4  1  0  0  0  0
  3  6  1  0  0  0  0
  3 20  1  0  0  0  0
  4  5  1  0  0  0  0
  4 27  1  0  0  0  0
  4 28  1  0  0  0  0
  5 29  1  0  0  0  0
  5 30  1  0  0  0  0
  5 31  1  0  0  0  0
  6  7  1  0  0  0  0
  8  7  1  1  0  0  0
  8  9  1  0  0  0  0
  8 13  1  0  0  0  0
  8 19  1  0  0  0  0
  9 10  1  0  0  0  0
  9 32  1  0  0  0  0
  9 33  1  0  0  0  0
 10 11  1  0  0  0  0
 10 34  1  0  0  0  0
 10 35  1  0  0  0  0
 11 12  1  0  0  0  0
 11 36  1  0  0  0  0
 11 37  1  0  0  0  0
 13 12  1  0  0  0  0
 12 38  1  0  0  0  0
 12 39  1  0  0  0  0
 13 14  1  0  0  0  0
 13 40  1  1  0  0  0
 14 21  1  6  0  0  0
 14 15  1  0  0  0  0
 14 16  1  0  0  0  0
 15 41  1  0  0  0  0
 15 42  1  0  0  0  0
 15 43  1  0  0  0  0
 16 17  2  0  0  0  0
 16 18  1  0  0  0  0
 19 18  1  0  0  0  0
 19 20  1  0  0  0  0
 19 44  1  6  0  0  0
M  END
