
  Mrv171c004271813302D          

 54 57  0  0  0  0            999 V2000
   -1.6507   -1.9644    0.0000 C   0  0  0  0  0  0  0  0  0  0  0  0
   -1.8950   -1.1764    0.0000 C   0  0  0  0  0  0  0  0  0  0  0  0
   -2.6996   -0.9940    0.0000 C   0  0  0  0  0  0  0  0  0  0  0  0
   -1.3347   -0.5708    0.0000 C   0  0  0  0  0  0  0  0  0  0  0  0
   -1.5790    0.2172    0.0000 C   0  0  0  0  0  0  0  0  0  0  0  0
   -1.0187    0.8227    0.0000 C   0  0  1  0  0  0  0  0  0  0  0  0
   -1.3073    1.6128    0.0000 C   0  0  0  0  0  0  0  0  0  0  0  0
   -2.0897    1.8743    0.0000 O   0  0  0  0  0  0  0  0  0  0  0  0
   -0.6021    2.0705    0.0000 O   0  0  0  0  0  0  0  0  0  0  0  0
    0.2127    1.7998    0.0000 C   0  0  2  0  0  0  0  0  0  0  0  0
    1.1454    1.5791    0.0000 O   0  0  0  0  0  0  0  0  0  0  0  0
    1.9774    1.7921    0.0000 C   0  0  1  0  0  0  0  0  0  0  0  0
    2.6629    2.2512    0.0000 C   0  0  0  0  0  0  0  0  0  0  0  0
    2.4632    1.0943    0.0000 C   0  0  0  0  0  0  0  0  0  0  0  0
    1.9744    0.4053    0.0000 C   0  0  0  0  0  0  0  0  0  0  0  0
    1.1169    0.3941    0.0000 C   0  0  1  0  0  0  0  0  0  0  0  0
    1.0005   -0.4532    0.0000 C   0  0  1  0  0  0  0  0  0  0  0  0
    1.6889   -0.9078    0.0000 C   0  0  0  0  0  0  0  0  0  0  0  0
    0.2813   -0.8844    0.0000 C   0  0  0  0  0  0  0  0  0  0  0  0
   -0.2822   -0.2649    0.0000 C   0  0  0  0  0  0  0  0  0  0  0  0
   -0.1861    0.5900    0.0000 C   0  0  2  0  0  0  0  0  0  0  0  0
    0.5563    1.0895    0.0000 C   0  0  1  0  0  0  0  0  0  0  0  0
    0.7948    2.0403    0.0000 O   0  0  0  0  0  0  0  0  0  0  0  0
    1.5210    2.5007    0.0000 O   0  0  0  0  0  0  0  0  0  0  0  0
   -0.4584    1.4283    0.0000 H   0  0  0  0  0  0  0  0  0  0  0  0
    1.4680    1.1406    0.0000 H   0  0  0  0  0  0  0  0  0  0  0  0
   -2.4387   -2.2087    0.0000 H   0  0  0  0  0  0  0  0  0  0  0  0
   -1.4064   -2.7524    0.0000 H   0  0  0  0  0  0  0  0  0  0  0  0
   -0.8627   -1.7201    0.0000 H   0  0  0  0  0  0  0  0  0  0  0  0
   -2.4553   -1.7820    0.0000 H   0  0  0  0  0  0  0  0  0  0  0  0
   -2.3151   -0.2640    0.0000 H   0  0  0  0  0  0  0  0  0  0  0  0
   -3.3051   -0.4337    0.0000 H   0  0  0  0  0  0  0  0  0  0  0  0
   -3.3975   -1.4339    0.0000 H   0  0  0  0  0  0  0  0  0  0  0  0
   -0.6976   -1.0950    0.0000 H   0  0  0  0  0  0  0  0  0  0  0  0
   -0.5338   -0.3728    0.0000 H   0  0  0  0  0  0  0  0  0  0  0  0
   -2.1115    0.8473    0.0000 H   0  0  0  0  0  0  0  0  0  0  0  0
   -0.7744    0.0347    0.0000 H   0  0  0  0  0  0  0  0  0  0  0  0
    0.1834    2.6243    0.0000 H   0  0  0  0  0  0  0  0  0  0  0  0
    3.1220    1.5657    0.0000 H   0  0  0  0  0  0  0  0  0  0  0  0
    3.3483    2.7103    0.0000 H   0  0  0  0  0  0  0  0  0  0  0  0
    2.2037    2.9366    0.0000 H   0  0  0  0  0  0  0  0  0  0  0  0
    2.7221    0.3110    0.0000 H   0  0  0  0  0  0  0  0  0  0  0  0
    3.2475    0.8386    0.0000 H   0  0  0  0  0  0  0  0  0  0  0  0
    1.5384   -0.2951    0.0000 H   0  0  0  0  0  0  0  0  0  0  0  0
    2.3290   -0.3396    0.0000 H   0  0  0  0  0  0  0  0  0  0  0  0
    0.3121    0.0014    0.0000 H   0  0  0  0  0  0  0  0  0  0  0  0
    0.9768   -1.3243    0.0000 H   0  0  0  0  0  0  0  0  0  0  0  0
    1.7476   -1.7307    0.0000 H   0  0  0  0  0  0  0  0  0  0  0  0
    2.4530   -1.2190    0.0000 H   0  0  0  0  0  0  0  0  0  0  0  0
   -0.4484   -1.2694    0.0000 H   0  0  0  0  0  0  0  0  0  0  0  0
    0.2489   -1.7087    0.0000 H   0  0  0  0  0  0  0  0  0  0  0  0
   -0.6456    0.4758    0.0000 H   0  0  0  0  0  0  0  0  0  0  0  0
    0.5254   -0.4334    0.0000 H   0  0  0  0  0  0  0  0  0  0  0  0
    0.6310    0.4765    0.0000 H   0  0  0  0  0  0  0  0  0  0  0  0
  1  2  1  0  0  0  0
  1 27  1  0  0  0  0
  1 28  1  0  0  0  0
  1 29  1  0  0  0  0
  2  3  1  0  0  0  0
  2  4  1  0  0  0  0
  2 30  1  0  0  0  0
  3 31  1  0  0  0  0
  3 32  1  0  0  0  0
  3 33  1  0  0  0  0
  4  5  1  0  0  0  0
  4 34  1  0  0  0  0
  4 35  1  0  0  0  0
  6  5  1  0  0  0  0
  5 36  1  0  0  0  0
  5 37  1  0  0  0  0
  6 25  1  6  0  0  0
  6  7  1  1  0  0  0
 21  6  1  0  0  0  0
  7  8  2  0  0  0  0
  7  9  1  0  0  0  0
 10  9  1  0  0  0  0
 10 11  1  0  0  0  0
 22 10  1  0  0  0  0
 10 38  1  1  0  0  0
 12 11  1  0  0  0  0
 12 13  1  1  0  0  0
 12 14  1  0  0  0  0
 12 24  1  0  0  0  0
 13 39  1  0  0  0  0
 13 40  1  0  0  0  0
 13 41  1  0  0  0  0
 14 15  1  0  0  0  0
 14 42  1  0  0  0  0
 14 43  1  0  0  0  0
 16 15  1  0  0  0  0
 15 44  1  0  0  0  0
 15 45  1  0  0  0  0
 16 26  1  6  0  0  0
 16 17  1  0  0  0  0
 22 16  1  0  0  0  0
 17 18  1  0  0  0  0
 17 19  1  1  0  0  0
 17 46  1  6  0  0  0
 18 47  1  0  0  0  0
 18 48  1  0  0  0  0
 18 49  1  0  0  0  0
 19 20  1  0  0  0  0
 19 50  1  0  0  0  0
 19 51  1  0  0  0  0
 21 20  1  0  0  0  0
 20 52  1  0  0  0  0
 20 53  1  0  0  0  0
 22 21  1  0  0  0  0
 21 54  1  6  0  0  0
 22 23  1  6  0  0  0
 23 24  1  0  0  0  0
M  END
