
  Mrv171c004271813302D          

 51 54  0  0  0  0            999 V2000
   -1.8260   -2.0209    0.0000 C   0  0  0  0  0  0  0  0  0  0  0  0
   -2.0703   -1.2329    0.0000 C   0  0  0  0  0  0  0  0  0  0  0  0
   -1.5100   -0.6273    0.0000 C   0  0  0  0  0  0  0  0  0  0  0  0
   -1.7543    0.1607    0.0000 C   0  0  0  0  0  0  0  0  0  0  0  0
   -1.1940    0.7663    0.0000 C   0  0  1  0  0  0  0  0  0  0  0  0
   -1.4826    1.5564    0.0000 C   0  0  0  0  0  0  0  0  0  0  0  0
   -2.2651    1.8179    0.0000 O   0  0  0  0  0  0  0  0  0  0  0  0
   -0.7774    2.0140    0.0000 O   0  0  0  0  0  0  0  0  0  0  0  0
    0.0374    1.7434    0.0000 C   0  0  2  0  0  0  0  0  0  0  0  0
    0.9701    1.5227    0.0000 O   0  0  0  0  0  0  0  0  0  0  0  0
    1.8021    1.7356    0.0000 C   0  0  1  0  0  0  0  0  0  0  0  0
    2.4875    2.1948    0.0000 C   0  0  0  0  0  0  0  0  0  0  0  0
    2.2879    1.0379    0.0000 C   0  0  0  0  0  0  0  0  0  0  0  0
    1.7991    0.3488    0.0000 C   0  0  0  0  0  0  0  0  0  0  0  0
    0.9416    0.3376    0.0000 C   0  0  1  0  0  0  0  0  0  0  0  0
    0.8252   -0.5096    0.0000 C   0  0  1  0  0  0  0  0  0  0  0  0
    1.5136   -0.9643    0.0000 C   0  0  0  0  0  0  0  0  0  0  0  0
    0.1060   -0.9408    0.0000 C   0  0  0  0  0  0  0  0  0  0  0  0
   -0.4575   -0.3213    0.0000 C   0  0  0  0  0  0  0  0  0  0  0  0
   -0.3614    0.5336    0.0000 C   0  0  2  0  0  0  0  0  0  0  0  0
    0.3809    1.0331    0.0000 C   0  0  1  0  0  0  0  0  0  0  0  0
    0.6195    1.9839    0.0000 O   0  0  0  0  0  0  0  0  0  0  0  0
    1.3457    2.4443    0.0000 O   0  0  0  0  0  0  0  0  0  0  0  0
   -0.9693   -0.0275    0.0000 H   0  0  0  0  0  0  0  0  0  0  0  0
    1.2927    1.0842    0.0000 H   0  0  0  0  0  0  0  0  0  0  0  0
   -2.6140   -2.2652    0.0000 H   0  0  0  0  0  0  0  0  0  0  0  0
   -1.5817   -2.8089    0.0000 H   0  0  0  0  0  0  0  0  0  0  0  0
   -1.0380   -1.7766    0.0000 H   0  0  0  0  0  0  0  0  0  0  0  0
   -2.7074   -0.7087    0.0000 H   0  0  0  0  0  0  0  0  0  0  0  0
   -2.8712   -1.4309    0.0000 H   0  0  0  0  0  0  0  0  0  0  0  0
   -0.8729   -1.1514    0.0000 H   0  0  0  0  0  0  0  0  0  0  0  0
   -0.7091   -0.4292    0.0000 H   0  0  0  0  0  0  0  0  0  0  0  0
   -2.3914    0.6848    0.0000 H   0  0  0  0  0  0  0  0  0  0  0  0
   -2.5552   -0.0374    0.0000 H   0  0  0  0  0  0  0  0  0  0  0  0
    0.0081    2.5679    0.0000 H   0  0  0  0  0  0  0  0  0  0  0  0
    2.9467    1.5093    0.0000 H   0  0  0  0  0  0  0  0  0  0  0  0
    3.1730    2.6539    0.0000 H   0  0  0  0  0  0  0  0  0  0  0  0
    2.0284    2.8802    0.0000 H   0  0  0  0  0  0  0  0  0  0  0  0
    2.5468    0.2546    0.0000 H   0  0  0  0  0  0  0  0  0  0  0  0
    3.0722    0.7821    0.0000 H   0  0  0  0  0  0  0  0  0  0  0  0
    1.3631   -0.3516    0.0000 H   0  0  0  0  0  0  0  0  0  0  0  0
    2.1537   -0.3960    0.0000 H   0  0  0  0  0  0  0  0  0  0  0  0
    0.1367   -0.0550    0.0000 H   0  0  0  0  0  0  0  0  0  0  0  0
    0.8014   -1.3807    0.0000 H   0  0  0  0  0  0  0  0  0  0  0  0
    1.5723   -1.7872    0.0000 H   0  0  0  0  0  0  0  0  0  0  0  0
    2.2777   -1.2755    0.0000 H   0  0  0  0  0  0  0  0  0  0  0  0
   -0.6237   -1.3258    0.0000 H   0  0  0  0  0  0  0  0  0  0  0  0
    0.0736   -1.7652    0.0000 H   0  0  0  0  0  0  0  0  0  0  0  0
   -0.8303    0.4147    0.0000 H   0  0  0  0  0  0  0  0  0  0  0  0
    0.3501   -0.4898    0.0000 H   0  0  0  0  0  0  0  0  0  0  0  0
   -0.4927    1.3481    0.0000 H   0  0  0  0  0  0  0  0  0  0  0  0
  1  2  1  0  0  0  0
  1 26  1  0  0  0  0
  1 27  1  0  0  0  0
  1 28  1  0  0  0  0
  2  3  1  0  0  0  0
  2 29  1  0  0  0  0
  2 30  1  0  0  0  0
  3  4  1  0  0  0  0
  3 31  1  0  0  0  0
  3 32  1  0  0  0  0
  5  4  1  1  0  0  0
  4 33  1  0  0  0  0
  4 34  1  0  0  0  0
  5 24  1  6  0  0  0
  5  6  1  0  0  0  0
 20  5  1  0  0  0  0
  6  7  2  0  0  0  0
  6  8  1  0  0  0  0
  9  8  1  0  0  0  0
  9 10  1  0  0  0  0
 21  9  1  0  0  0  0
  9 35  1  1  0  0  0
 11 10  1  0  0  0  0
 11 12  1  1  0  0  0
 11 13  1  0  0  0  0
 11 23  1  0  0  0  0
 12 36  1  0  0  0  0
 12 37  1  0  0  0  0
 12 38  1  0  0  0  0
 13 14  1  0  0  0  0
 13 39  1  0  0  0  0
 13 40  1  0  0  0  0
 15 14  1  0  0  0  0
 14 41  1  0  0  0  0
 14 42  1  0  0  0  0
 15 25  1  6  0  0  0
 15 16  1  0  0  0  0
 21 15  1  0  0  0  0
 16 17  1  0  0  0  0
 16 18  1  1  0  0  0
 16 43  1  6  0  0  0
 17 44  1  0  0  0  0
 17 45  1  0  0  0  0
 17 46  1  0  0  0  0
 18 19  1  0  0  0  0
 18 47  1  0  0  0  0
 18 48  1  0  0  0  0
 20 19  1  0  0  0  0
 19 49  1  0  0  0  0
 19 50  1  0  0  0  0
 21 20  1  0  0  0  0
 20 51  1  6  0  0  0
 21 22  1  6  0  0  0
 22 23  1  0  0  0  0
M  END
