
  Mrv171c004271813302D          

 43 46  0  0  0  0            999 V2000
   -1.9734    0.0741    0.0000 C   0  0  0  0  0  0  0  0  0  0  0  0
   -2.2620    0.8642    0.0000 C   0  0  0  0  0  0  0  0  0  0  0  0
   -1.5568    1.3219    0.0000 O   0  0  0  0  0  0  0  0  0  0  0  0
   -0.7420    1.0512    0.0000 C   0  0  2  0  0  0  0  0  0  0  0  0
    0.1907    0.8305    0.0000 O   0  0  0  0  0  0  0  0  0  0  0  0
    1.0227    1.0435    0.0000 C   0  0  1  0  0  0  0  0  0  0  0  0
    1.7082    1.5026    0.0000 C   0  0  0  0  0  0  0  0  0  0  0  0
    1.6533    2.3258    0.0000 C   0  0  0  0  0  0  0  0  0  0  0  0
    1.5085    0.3457    0.0000 C   0  0  0  0  0  0  0  0  0  0  0  0
    1.0197   -0.3433    0.0000 C   0  0  0  0  0  0  0  0  0  0  0  0
    0.1622   -0.3545    0.0000 C   0  0  1  0  0  0  0  0  0  0  0  0
    0.0458   -1.2018    0.0000 C   0  0  1  0  0  0  0  0  0  0  0  0
    0.7342   -1.6564    0.0000 C   0  0  0  0  0  0  0  0  0  0  0  0
   -0.6734   -1.6330    0.0000 C   0  0  0  0  0  0  0  0  0  0  0  0
   -1.2369   -1.0135    0.0000 C   0  0  0  0  0  0  0  0  0  0  0  0
   -1.1408   -0.1585    0.0000 C   0  0  2  0  0  0  0  0  0  0  0  0
   -0.3984    0.3409    0.0000 C   0  0  1  0  0  0  0  0  0  0  0  0
   -0.1599    1.2917    0.0000 O   0  0  0  0  0  0  0  0  0  0  0  0
    0.5663    1.7521    0.0000 O   0  0  0  0  0  0  0  0  0  0  0  0
   -2.7426   -0.2241    0.0000 H   0  0  0  0  0  0  0  0  0  0  0  0
   -2.2110   -0.7159    0.0000 H   0  0  0  0  0  0  0  0  0  0  0  0
    0.5133    0.3921    0.0000 H   0  0  0  0  0  0  0  0  0  0  0  0
   -2.8242    1.4680    0.0000 H   0  0  0  0  0  0  0  0  0  0  0  0
   -3.0742    0.7197    0.0000 H   0  0  0  0  0  0  0  0  0  0  0  0
   -0.7713    1.8757    0.0000 H   0  0  0  0  0  0  0  0  0  0  0  0
    2.2064    0.8450    0.0000 H   0  0  0  0  0  0  0  0  0  0  0  0
    2.5331    1.5095    0.0000 H   0  0  0  0  0  0  0  0  0  0  0  0
    2.4765    2.3807    0.0000 H   0  0  0  0  0  0  0  0  0  0  0  0
    1.5984    3.1489    0.0000 H   0  0  0  0  0  0  0  0  0  0  0  0
    0.8301    2.2709    0.0000 H   0  0  0  0  0  0  0  0  0  0  0  0
    1.7674   -0.4376    0.0000 H   0  0  0  0  0  0  0  0  0  0  0  0
    2.2928    0.0899    0.0000 H   0  0  0  0  0  0  0  0  0  0  0  0
    0.5838   -1.0437    0.0000 H   0  0  0  0  0  0  0  0  0  0  0  0
    1.3743   -1.0882    0.0000 H   0  0  0  0  0  0  0  0  0  0  0  0
   -0.6426   -0.7472    0.0000 H   0  0  0  0  0  0  0  0  0  0  0  0
    0.0221   -2.0729    0.0000 H   0  0  0  0  0  0  0  0  0  0  0  0
    0.7929   -2.4793    0.0000 H   0  0  0  0  0  0  0  0  0  0  0  0
    1.4983   -1.9676    0.0000 H   0  0  0  0  0  0  0  0  0  0  0  0
   -1.3999   -2.0238    0.0000 H   0  0  0  0  0  0  0  0  0  0  0  0
   -0.9325   -2.4162    0.0000 H   0  0  0  0  0  0  0  0  0  0  0  0
   -2.0549   -0.9061    0.0000 H   0  0  0  0  0  0  0  0  0  0  0  0
   -1.8368   -1.5798    0.0000 H   0  0  0  0  0  0  0  0  0  0  0  0
   -1.2721    0.6559    0.0000 H   0  0  0  0  0  0  0  0  0  0  0  0
  1 20  1  0  0  0  0
  1 21  1  0  0  0  0
  1  2  1  0  0  0  0
 16  1  1  0  0  0  0
  2  3  1  0  0  0  0
  2 23  1  0  0  0  0
  2 24  1  0  0  0  0
  4  3  1  0  0  0  0
  4  5  1  0  0  0  0
 17  4  1  0  0  0  0
  4 25  1  1  0  0  0
  6  5  1  0  0  0  0
  6  7  1  1  0  0  0
  6  9  1  0  0  0  0
  6 19  1  0  0  0  0
  7  8  1  0  0  0  0
  7 26  1  0  0  0  0
  7 27  1  0  0  0  0
  8 28  1  0  0  0  0
  8 29  1  0  0  0  0
  8 30  1  0  0  0  0
  9 10  1  0  0  0  0
  9 31  1  0  0  0  0
  9 32  1  0  0  0  0
 11 10  1  0  0  0  0
 10 33  1  0  0  0  0
 10 34  1  0  0  0  0
 11 22  1  6  0  0  0
 11 12  1  0  0  0  0
 17 11  1  0  0  0  0
 12 13  1  0  0  0  0
 12 14  1  1  0  0  0
 12 35  1  6  0  0  0
 13 36  1  0  0  0  0
 13 37  1  0  0  0  0
 13 38  1  0  0  0  0
 14 15  1  0  0  0  0
 14 39  1  0  0  0  0
 14 40  1  0  0  0  0
 16 15  1  0  0  0  0
 15 41  1  0  0  0  0
 15 42  1  0  0  0  0
 17 16  1  0  0  0  0
 16 43  1  6  0  0  0
 17 18  1  6  0  0  0
 18 19  1  0  0  0  0
M  END
