
  Mrv171c004271813302D          

 46 49  0  0  0  0            999 V2000
   -1.7059   -1.2102    0.0000 C   0  0  0  0  0  0  0  0  0  0  0  0
   -1.9502   -0.4222    0.0000 C   0  0  0  0  0  0  0  0  0  0  0  0
   -1.3900    0.1834    0.0000 C   0  0  1  0  0  0  0  0  0  0  0  0
   -1.6785    0.9735    0.0000 C   0  0  0  0  0  0  0  0  0  0  0  0
   -0.9734    1.4311    0.0000 O   0  0  0  0  0  0  0  0  0  0  0  0
   -0.1585    1.1605    0.0000 C   0  0  2  0  0  0  0  0  0  0  0  0
    0.7741    0.9398    0.0000 O   0  0  0  0  0  0  0  0  0  0  0  0
    1.6062    1.1527    0.0000 C   0  0  1  0  0  0  0  0  0  0  0  0
    2.2916    1.6119    0.0000 C   0  0  0  0  0  0  0  0  0  0  0  0
    2.0919    0.4550    0.0000 C   0  0  0  0  0  0  0  0  0  0  0  0
    1.6031   -0.2341    0.0000 C   0  0  0  0  0  0  0  0  0  0  0  0
    0.7457   -0.2452    0.0000 C   0  0  1  0  0  0  0  0  0  0  0  0
    0.6293   -1.0925    0.0000 C   0  0  1  0  0  0  0  0  0  0  0  0
    1.3177   -1.5472    0.0000 C   0  0  0  0  0  0  0  0  0  0  0  0
   -0.0899   -1.5237    0.0000 C   0  0  0  0  0  0  0  0  0  0  0  0
   -0.6535   -0.9042    0.0000 C   0  0  0  0  0  0  0  0  0  0  0  0
   -0.5573   -0.0493    0.0000 C   0  0  2  0  0  0  0  0  0  0  0  0
    0.1850    0.4502    0.0000 C   0  0  1  0  0  0  0  0  0  0  0  0
    0.4236    1.4010    0.0000 O   0  0  0  0  0  0  0  0  0  0  0  0
    1.1498    1.8614    0.0000 O   0  0  0  0  0  0  0  0  0  0  0  0
   -1.1652   -0.6104    0.0000 H   0  0  0  0  0  0  0  0  0  0  0  0
    1.0968    0.5013    0.0000 H   0  0  0  0  0  0  0  0  0  0  0  0
   -2.4939   -1.4545    0.0000 H   0  0  0  0  0  0  0  0  0  0  0  0
   -1.4616   -1.9982    0.0000 H   0  0  0  0  0  0  0  0  0  0  0  0
   -0.9179   -0.9659    0.0000 H   0  0  0  0  0  0  0  0  0  0  0  0
   -2.5874    0.1019    0.0000 H   0  0  0  0  0  0  0  0  0  0  0  0
   -2.7511   -0.6202    0.0000 H   0  0  0  0  0  0  0  0  0  0  0  0
   -2.2407    1.5773    0.0000 H   0  0  0  0  0  0  0  0  0  0  0  0
   -2.4907    0.8290    0.0000 H   0  0  0  0  0  0  0  0  0  0  0  0
   -0.1879    1.9850    0.0000 H   0  0  0  0  0  0  0  0  0  0  0  0
    2.7507    0.9264    0.0000 H   0  0  0  0  0  0  0  0  0  0  0  0
    2.9771    2.0710    0.0000 H   0  0  0  0  0  0  0  0  0  0  0  0
    1.8325    2.2973    0.0000 H   0  0  0  0  0  0  0  0  0  0  0  0
    2.3509   -0.3283    0.0000 H   0  0  0  0  0  0  0  0  0  0  0  0
    2.8763    0.1992    0.0000 H   0  0  0  0  0  0  0  0  0  0  0  0
    1.1672   -0.9345    0.0000 H   0  0  0  0  0  0  0  0  0  0  0  0
    1.9578   -0.9789    0.0000 H   0  0  0  0  0  0  0  0  0  0  0  0
   -0.0592   -0.6379    0.0000 H   0  0  0  0  0  0  0  0  0  0  0  0
    0.6055   -1.9636    0.0000 H   0  0  0  0  0  0  0  0  0  0  0  0
    1.3764   -2.3701    0.0000 H   0  0  0  0  0  0  0  0  0  0  0  0
    2.0817   -1.8584    0.0000 H   0  0  0  0  0  0  0  0  0  0  0  0
   -0.8165   -1.9145    0.0000 H   0  0  0  0  0  0  0  0  0  0  0  0
   -0.3490   -2.3070    0.0000 H   0  0  0  0  0  0  0  0  0  0  0  0
   -1.1517   -1.5618    0.0000 H   0  0  0  0  0  0  0  0  0  0  0  0
   -0.6165   -1.7284    0.0000 H   0  0  0  0  0  0  0  0  0  0  0  0
   -0.6887    0.7652    0.0000 H   0  0  0  0  0  0  0  0  0  0  0  0
  1  2  1  0  0  0  0
  1 23  1  0  0  0  0
  1 24  1  0  0  0  0
  1 25  1  0  0  0  0
  3  2  1  1  0  0  0
  2 26  1  0  0  0  0
  2 27  1  0  0  0  0
  3 21  1  6  0  0  0
  3  4  1  0  0  0  0
 17  3  1  0  0  0  0
  4  5  1  0  0  0  0
  4 28  1  0  0  0  0
  4 29  1  0  0  0  0
  6  5  1  0  0  0  0
  6  7  1  0  0  0  0
 18  6  1  0  0  0  0
  6 30  1  1  0  0  0
  8  7  1  0  0  0  0
  8  9  1  1  0  0  0
  8 10  1  0  0  0  0
  8 20  1  0  0  0  0
  9 31  1  0  0  0  0
  9 32  1  0  0  0  0
  9 33  1  0  0  0  0
 10 11  1  0  0  0  0
 10 34  1  0  0  0  0
 10 35  1  0  0  0  0
 12 11  1  0  0  0  0
 11 36  1  0  0  0  0
 11 37  1  0  0  0  0
 12 22  1  6  0  0  0
 12 13  1  0  0  0  0
 18 12  1  0  0  0  0
 13 14  1  0  0  0  0
 13 15  1  1  0  0  0
 13 38  1  6  0  0  0
 14 39  1  0  0  0  0
 14 40  1  0  0  0  0
 14 41  1  0  0  0  0
 15 16  1  0  0  0  0
 15 42  1  0  0  0  0
 15 43  1  0  0  0  0
 17 16  1  0  0  0  0
 16 44  1  0  0  0  0
 16 45  1  0  0  0  0
 18 17  1  0  0  0  0
 17 46  1  6  0  0  0
 18 19  1  6  0  0  0
 19 20  1  0  0  0  0
M  END
