
  Mrv171c004271813302D          

 47 49  0  0  0  0            999 V2000
    3.2006   -1.3604    0.0000 C   0  0  0  0  0  0  0  0  0  0  0  0
    2.4601   -1.7242    0.0000 C   0  0  0  0  0  0  0  0  0  0  0  0
    1.7748   -1.2649    0.0000 C   0  0  0  0  0  0  0  0  0  0  0  0
    1.0344   -1.6287    0.0000 C   0  0  0  0  0  0  0  0  0  0  0  0
    0.3491   -1.1694    0.0000 C   0  0  1  0  0  0  0  0  0  0  0  0
   -0.3914   -1.5333    0.0000 C   0  0  0  0  0  0  0  0  0  0  0  0
   -0.4465   -2.3564    0.0000 O   0  0  0  0  0  0  0  0  0  0  0  0
   -1.0767   -1.0740    0.0000 O   0  0  0  0  0  0  0  0  0  0  0  0
   -1.0216   -0.2508    0.0000 C   0  0  2  0  0  0  0  0  0  0  0  0
   -1.8650    0.0567    0.0000 O   0  0  0  0  0  0  0  0  0  0  0  0
   -2.1589    0.8609    0.0000 C   0  0  0  0  0  0  0  0  0  0  0  0
   -2.9035    0.5057    0.0000 C   0  0  0  0  0  0  0  0  0  0  0  0
   -2.5829    1.5686    0.0000 C   0  0  0  0  0  0  0  0  0  0  0  0
   -1.4669    1.3701    0.0000 O   0  0  0  0  0  0  0  0  0  0  0  0
   -0.9470    0.7114    0.0000 O   0  0  0  0  0  0  0  0  0  0  0  0
   -0.2811    0.1130    0.0000 C   0  0  1  0  0  0  0  0  0  0  0  0
   -0.2260    0.9362    0.0000 C   0  0  0  0  0  0  0  0  0  0  0  0
    0.5144    1.3000    0.0000 C   0  0  0  0  0  0  0  0  0  0  0  0
    1.1997    0.8407    0.0000 C   0  0  0  0  0  0  0  0  0  0  0  0
    1.1446    0.0176    0.0000 C   0  0  0  0  0  0  0  0  0  0  0  0
    0.4042   -0.3463    0.0000 C   0  0  1  0  0  0  0  0  0  0  0  0
    1.0895   -0.8056    0.0000 H   0  0  0  0  0  0  0  0  0  0  0  0
    3.5644   -2.1008    0.0000 H   0  0  0  0  0  0  0  0  0  0  0  0
    3.9410   -0.9965    0.0000 H   0  0  0  0  0  0  0  0  0  0  0  0
    2.8367   -0.6199    0.0000 H   0  0  0  0  0  0  0  0  0  0  0  0
    2.0414   -2.4351    0.0000 H   0  0  0  0  0  0  0  0  0  0  0  0
    2.7803   -2.4845    0.0000 H   0  0  0  0  0  0  0  0  0  0  0  0
    2.1935   -0.5540    0.0000 H   0  0  0  0  0  0  0  0  0  0  0  0
    1.4546   -0.5046    0.0000 H   0  0  0  0  0  0  0  0  0  0  0  0
    0.6157   -2.3396    0.0000 H   0  0  0  0  0  0  0  0  0  0  0  0
    1.3545   -2.3891    0.0000 H   0  0  0  0  0  0  0  0  0  0  0  0
   -0.3363   -0.7101    0.0000 H   0  0  0  0  0  0  0  0  0  0  0  0
   -3.2587    1.2503    0.0000 H   0  0  0  0  0  0  0  0  0  0  0  0
   -3.6481    0.1505    0.0000 H   0  0  0  0  0  0  0  0  0  0  0  0
   -2.5483   -0.2390    0.0000 H   0  0  0  0  0  0  0  0  0  0  0  0
   -1.7640    1.6691    0.0000 H   0  0  0  0  0  0  0  0  0  0  0  0
   -2.3426    2.3578    0.0000 H   0  0  0  0  0  0  0  0  0  0  0  0
   -3.2068    2.1083    0.0000 H   0  0  0  0  0  0  0  0  0  0  0  0
   -0.5316    1.7025    0.0000 H   0  0  0  0  0  0  0  0  0  0  0  0
    0.4593    0.4769    0.0000 H   0  0  0  0  0  0  0  0  0  0  0  0
    0.9331    2.0109    0.0000 H   0  0  0  0  0  0  0  0  0  0  0  0
    0.1942    2.0604    0.0000 H   0  0  0  0  0  0  0  0  0  0  0  0
    2.0247    0.8336    0.0000 H   0  0  0  0  0  0  0  0  0  0  0  0
    1.6981    1.4982    0.0000 H   0  0  0  0  0  0  0  0  0  0  0  0
    1.9550   -0.1372    0.0000 H   0  0  0  0  0  0  0  0  0  0  0  0
    1.7975    0.5219    0.0000 H   0  0  0  0  0  0  0  0  0  0  0  0
    1.2273   -0.4014    0.0000 H   0  0  0  0  0  0  0  0  0  0  0  0
  1  2  1  0  0  0  0
  1 23  1  0  0  0  0
  1 24  1  0  0  0  0
  1 25  1  0  0  0  0
  2  3  1  0  0  0  0
  2 26  1  0  0  0  0
  2 27  1  0  0  0  0
  3  4  1  0  0  0  0
  3 28  1  0  0  0  0
  3 29  1  0  0  0  0
  5  4  1  0  0  0  0
  4 30  1  0  0  0  0
  4 31  1  0  0  0  0
  5 22  1  6  0  0  0
  5  6  1  0  0  0  0
 21  5  1  0  0  0  0
  6  7  2  0  0  0  0
  6  8  1  0  0  0  0
  9  8  1  0  0  0  0
  9 10  1  0  0  0  0
 16  9  1  0  0  0  0
  9 32  1  1  0  0  0
 10 11  1  0  0  0  0
 11 12  1  0  0  0  0
 11 13  1  0  0  0  0
 11 14  1  0  0  0  0
 12 33  1  0  0  0  0
 12 34  1  0  0  0  0
 12 35  1  0  0  0  0
 13 36  1  0  0  0  0
 13 37  1  0  0  0  0
 13 38  1  0  0  0  0
 14 15  1  0  0  0  0
 16 15  1  6  0  0  0
 16 17  1  0  0  0  0
 16 21  1  0  0  0  0
 17 18  1  0  0  0  0
 17 39  1  0  0  0  0
 17 40  1  0  0  0  0
 18 19  1  0  0  0  0
 18 41  1  0  0  0  0
 18 42  1  0  0  0  0
 19 20  1  0  0  0  0
 19 43  1  0  0  0  0
 19 44  1  0  0  0  0
 21 20  1  0  0  0  0
 20 45  1  0  0  0  0
 20 46  1  0  0  0  0
 21 47  1  6  0  0  0
M  END
