
  Mrv171c004271813302D          

 47 50  0  0  0  0            999 V2000
   -1.8961    2.2264    0.0000 C   0  0  0  0  0  0  0  0  0  0  0  0
   -1.4667    1.5220    0.0000 C   0  0  0  0  0  0  0  0  0  0  0  0
   -1.8620    0.7979    0.0000 C   0  0  0  0  0  0  0  0  0  0  0  0
   -0.6419    1.5417    0.0000 C   0  0  0  0  0  0  0  0  0  0  0  0
   -0.2125    0.8373    0.0000 C   0  0  1  0  0  0  0  0  0  0  0  0
   -0.8940    0.3144    0.0000 C   0  0  0  0  0  0  0  0  0  0  0  0
   -0.8069   -0.5300    0.0000 C   0  0  0  0  0  0  0  0  0  0  0  0
    0.0167   -0.7942    0.0000 C   0  0  1  0  0  0  0  0  0  0  0  0
   -0.0354   -1.6250    0.0000 C   0  0  1  0  0  0  0  0  0  0  0  0
   -0.7680   -2.0044    0.0000 C   0  0  0  0  0  0  0  0  0  0  0  0
    0.6630   -2.0556    0.0000 C   0  0  0  0  0  0  0  0  0  0  0  0
    1.3946   -1.6693    0.0000 C   0  0  0  0  0  0  0  0  0  0  0  0
    1.4395   -0.8272    0.0000 C   0  0  1  0  0  0  0  0  0  0  0  0
    2.2580   -0.6185    0.0000 C   0  0  0  0  0  0  0  0  0  0  0  0
    2.4938    0.1760    0.0000 C   0  0  0  0  0  0  0  0  0  0  0  0
    3.2965    0.3666    0.0000 O   0  0  0  0  0  0  0  0  0  0  0  0
    1.9309    0.7747    0.0000 O   0  0  0  0  0  0  0  0  0  0  0  0
    1.1338    0.5531    0.0000 C   0  0  2  0  0  0  0  0  0  0  0  0
    0.5610    1.2019    0.0000 O   0  0  0  0  0  0  0  0  0  0  0  0
    0.7680   -0.2789    0.0000 C   0  0  1  0  0  0  0  0  0  0  0  0
    0.2472    0.2306    0.0000 O   0  0  0  0  0  0  0  0  0  0  0  0
    0.7342   -1.2013    0.0000 H   0  0  0  0  0  0  0  0  0  0  0  0
   -1.1917    2.6558    0.0000 H   0  0  0  0  0  0  0  0  0  0  0  0
   -2.3256    2.9308    0.0000 H   0  0  0  0  0  0  0  0  0  0  0  0
   -2.6005    1.7970    0.0000 H   0  0  0  0  0  0  0  0  0  0  0  0
   -2.2915    1.5023    0.0000 H   0  0  0  0  0  0  0  0  0  0  0  0
   -2.6536    0.5654    0.0000 H   0  0  0  0  0  0  0  0  0  0  0  0
   -1.8423   -0.0269    0.0000 H   0  0  0  0  0  0  0  0  0  0  0  0
   -1.0603    0.6034    0.0000 H   0  0  0  0  0  0  0  0  0  0  0  0
    0.0363    2.0114    0.0000 H   0  0  0  0  0  0  0  0  0  0  0  0
   -0.6136    2.3662    0.0000 H   0  0  0  0  0  0  0  0  0  0  0  0
   -1.6791    0.0609    0.0000 H   0  0  0  0  0  0  0  0  0  0  0  0
   -0.1364   -0.0120    0.0000 H   0  0  0  0  0  0  0  0  0  0  0  0
   -1.6148   -0.6971    0.0000 H   0  0  0  0  0  0  0  0  0  0  0  0
   -1.1369   -1.2861    0.0000 H   0  0  0  0  0  0  0  0  0  0  0  0
   -0.7265   -1.1744    0.0000 H   0  0  0  0  0  0  0  0  0  0  0  0
   -1.5902   -2.0724    0.0000 H   0  0  0  0  0  0  0  0  0  0  0  0
   -1.0191   -2.7903    0.0000 H   0  0  0  0  0  0  0  0  0  0  0  0
   -0.1376   -2.5366    0.0000 H   0  0  0  0  0  0  0  0  0  0  0  0
    0.6622   -2.8806    0.0000 H   0  0  0  0  0  0  0  0  0  0  0  0
    1.3694   -2.4819    0.0000 H   0  0  0  0  0  0  0  0  0  0  0  0
    2.0927   -2.1089    0.0000 H   0  0  0  0  0  0  0  0  0  0  0  0
    2.1273   -1.2899    0.0000 H   0  0  0  0  0  0  0  0  0  0  0  0
    1.6176   -0.0216    0.0000 H   0  0  0  0  0  0  0  0  0  0  0  0
    2.8628   -1.1797    0.0000 H   0  0  0  0  0  0  0  0  0  0  0  0
    3.0537   -0.4008    0.0000 H   0  0  0  0  0  0  0  0  0  0  0  0
    1.3682    1.3441    0.0000 H   0  0  0  0  0  0  0  0  0  0  0  0
  1  2  1  0  0  0  0
  1 23  1  0  0  0  0
  1 24  1  0  0  0  0
  1 25  1  0  0  0  0
  2  3  1  0  0  0  0
  2  4  1  0  0  0  0
  2 26  1  0  0  0  0
  3 27  1  0  0  0  0
  3 28  1  0  0  0  0
  3 29  1  0  0  0  0
  5  4  1  1  0  0  0
  4 30  1  0  0  0  0
  4 31  1  0  0  0  0
  5  6  1  0  0  0  0
  5 19  1  0  0  0  0
  5 21  1  0  0  0  0
  6  7  1  0  0  0  0
  6 32  1  0  0  0  0
  6 33  1  0  0  0  0
  8  7  1  0  0  0  0
  7 34  1  0  0  0  0
  7 35  1  0  0  0  0
  8 22  1  1  0  0  0
  8  9  1  0  0  0  0
 20  8  1  0  0  0  0
  9 10  1  0  0  0  0
  9 11  1  0  0  0  0
  9 36  1  1  0  0  0
 10 37  1  0  0  0  0
 10 38  1  0  0  0  0
 10 39  1  0  0  0  0
 11 12  1  0  0  0  0
 11 40  1  0  0  0  0
 11 41  1  0  0  0  0
 13 12  1  0  0  0  0
 12 42  1  0  0  0  0
 12 43  1  0  0  0  0
 13 14  1  0  0  0  0
 20 13  1  0  0  0  0
 13 44  1  1  0  0  0
 14 15  1  0  0  0  0
 14 45  1  0  0  0  0
 14 46  1  0  0  0  0
 15 16  2  0  0  0  0
 15 17  1  0  0  0  0
 18 17  1  0  0  0  0
 18 19  1  0  0  0  0
 20 18  1  0  0  0  0
 18 47  1  6  0  0  0
 20 21  1  1  0  0  0
M  END
