
  Mrv171c004271813302D          

 56 59  0  0  0  0            999 V2000
   -4.4133    0.5237    0.0000 C   0  0  0  0  0  0  0  0  0  0  0  0
   -3.6989    0.1112    0.0000 C   0  0  0  0  0  0  0  0  0  0  0  0
   -2.9844    0.5237    0.0000 C   0  0  0  0  0  0  0  0  0  0  0  0
   -2.2699    0.1112    0.0000 C   0  0  0  0  0  0  0  0  0  0  0  0
   -1.5554    0.5237    0.0000 C   0  0  0  0  0  0  0  0  0  0  0  0
   -0.8410    0.1112    0.0000 C   0  0  0  0  0  0  0  0  0  0  0  0
   -0.1265    0.5237    0.0000 C   0  0  1  0  0  0  0  0  0  0  0  0
   -0.1272    1.3700    0.0000 C   0  0  0  0  0  0  0  0  0  0  0  0
   -0.8429    1.7805    0.0000 O   0  0  0  0  0  0  0  0  0  0  0  0
    0.5976    1.7933    0.0000 O   0  0  0  0  0  0  0  0  0  0  0  0
    1.2790    1.3468    0.0000 C   0  0  2  0  0  0  0  0  0  0  0  0
    1.9925    1.8311    0.0000 O   0  0  0  0  0  0  0  0  0  0  0  0
    2.6132    1.2428    0.0000 C   0  0  1  0  0  0  0  0  0  0  0  0
    3.2079    1.8146    0.0000 C   0  0  0  0  0  0  0  0  0  0  0  0
    3.1820    0.5936    0.0000 C   0  0  0  0  0  0  0  0  0  0  0  0
    2.8639   -0.1927    0.0000 C   0  0  0  0  0  0  0  0  0  0  0  0
    2.0043   -0.2431    0.0000 C   0  0  1  0  0  0  0  0  0  0  0  0
    1.8612   -1.0561    0.0000 C   0  0  1  0  0  0  0  0  0  0  0  0
    2.4820   -1.5993    0.0000 C   0  0  0  0  0  0  0  0  0  0  0  0
    1.0662   -1.3085    0.0000 C   0  0  0  0  0  0  0  0  0  0  0  0
    0.4492   -0.7433    0.0000 C   0  0  0  0  0  0  0  0  0  0  0  0
    0.6204    0.0916    0.0000 C   0  0  2  0  0  0  0  0  0  0  0  0
    1.3925    0.4378    0.0000 C   0  0  1  0  0  0  0  0  0  0  0  0
    1.9974    0.7600    0.0000 O   0  0  0  0  0  0  0  0  0  0  0  0
   -0.1269   -0.3013    0.0000 H   0  0  0  0  0  0  0  0  0  0  0  0
    1.2111   -0.4702    0.0000 H   0  0  0  0  0  0  0  0  0  0  0  0
   -4.0008    1.2381    0.0000 H   0  0  0  0  0  0  0  0  0  0  0  0
   -5.1278    0.9362    0.0000 H   0  0  0  0  0  0  0  0  0  0  0  0
   -4.8258   -0.1908    0.0000 H   0  0  0  0  0  0  0  0  0  0  0  0
   -4.0691   -0.6261    0.0000 H   0  0  0  0  0  0  0  0  0  0  0  0
   -3.3286   -0.6261    0.0000 H   0  0  0  0  0  0  0  0  0  0  0  0
   -2.6141    1.2609    0.0000 H   0  0  0  0  0  0  0  0  0  0  0  0
   -3.3546    1.2609    0.0000 H   0  0  0  0  0  0  0  0  0  0  0  0
   -2.6402   -0.6261    0.0000 H   0  0  0  0  0  0  0  0  0  0  0  0
   -1.8997   -0.6261    0.0000 H   0  0  0  0  0  0  0  0  0  0  0  0
   -1.1852    1.2609    0.0000 H   0  0  0  0  0  0  0  0  0  0  0  0
   -1.9257    1.2609    0.0000 H   0  0  0  0  0  0  0  0  0  0  0  0
   -1.2112   -0.6261    0.0000 H   0  0  0  0  0  0  0  0  0  0  0  0
   -0.4707   -0.6261    0.0000 H   0  0  0  0  0  0  0  0  0  0  0  0
    0.5789    0.9103    0.0000 H   0  0  0  0  0  0  0  0  0  0  0  0
    3.7797    1.2200    0.0000 H   0  0  0  0  0  0  0  0  0  0  0  0
    3.8025    2.3865    0.0000 H   0  0  0  0  0  0  0  0  0  0  0  0
    2.6360    2.4093    0.0000 H   0  0  0  0  0  0  0  0  0  0  0  0
    3.8752    0.1462    0.0000 H   0  0  0  0  0  0  0  0  0  0  0  0
    2.3686    0.4560    0.0000 H   0  0  0  0  0  0  0  0  0  0  0  0
    2.9857   -1.0087    0.0000 H   0  0  0  0  0  0  0  0  0  0  0  0
    3.5980   -0.5692    0.0000 H   0  0  0  0  0  0  0  0  0  0  0  0
    2.6392   -0.7818    0.0000 H   0  0  0  0  0  0  0  0  0  0  0  0
    1.7437   -1.9674    0.0000 H   0  0  0  0  0  0  0  0  0  0  0  0
    2.5422   -2.4222    0.0000 H   0  0  0  0  0  0  0  0  0  0  0  0
    3.2661   -1.8561    0.0000 H   0  0  0  0  0  0  0  0  0  0  0  0
    0.2770   -1.5489    0.0000 H   0  0  0  0  0  0  0  0  0  0  0  0
    0.8718   -2.1102    0.0000 H   0  0  0  0  0  0  0  0  0  0  0  0
   -0.2238   -1.2205    0.0000 H   0  0  0  0  0  0  0  0  0  0  0  0
    0.1609    0.0296    0.0000 H   0  0  0  0  0  0  0  0  0  0  0  0
    1.0511    0.7952    0.0000 H   0  0  0  0  0  0  0  0  0  0  0  0
  1  2  1  0  0  0  0
  1 27  1  0  0  0  0
  1 28  1  0  0  0  0
  1 29  1  0  0  0  0
  2  3  1  0  0  0  0
  2 30  1  0  0  0  0
  2 31  1  0  0  0  0
  3  4  1  0  0  0  0
  3 32  1  0  0  0  0
  3 33  1  0  0  0  0
  4  5  1  0  0  0  0
  4 34  1  0  0  0  0
  4 35  1  0  0  0  0
  5  6  1  0  0  0  0
  5 36  1  0  0  0  0
  5 37  1  0  0  0  0
  7  6  1  0  0  0  0
  6 38  1  0  0  0  0
  6 39  1  0  0  0  0
  7 25  1  6  0  0  0
  7  8  1  0  0  0  0
 22  7  1  0  0  0  0
  8  9  2  0  0  0  0
  8 10  1  0  0  0  0
 11 10  1  0  0  0  0
 11 12  1  0  0  0  0
 23 11  1  0  0  0  0
 11 40  1  1  0  0  0
 13 12  1  0  0  0  0
 13 14  1  6  0  0  0
 13 15  1  0  0  0  0
 13 24  1  0  0  0  0
 14 41  1  0  0  0  0
 14 42  1  0  0  0  0
 14 43  1  0  0  0  0
 15 16  1  0  0  0  0
 15 44  1  0  0  0  0
 15 45  1  0  0  0  0
 17 16  1  0  0  0  0
 16 46  1  0  0  0  0
 16 47  1  0  0  0  0
 17 26  1  6  0  0  0
 17 18  1  0  0  0  0
 23 17  1  0  0  0  0
 18 19  1  0  0  0  0
 18 20  1  0  0  0  0
 18 48  1  6  0  0  0
 19 49  1  0  0  0  0
 19 50  1  0  0  0  0
 19 51  1  0  0  0  0
 20 21  1  0  0  0  0
 20 52  1  0  0  0  0
 20 53  1  0  0  0  0
 22 21  1  0  0  0  0
 21 54  1  0  0  0  0
 21 55  1  0  0  0  0
 23 22  1  0  0  0  0
 22 56  1  6  0  0  0
 23 24  1  6  0  0  0
M  END
