
  Mrv171c004271813302D          

 56 59  0  0  0  0            999 V2000
   -1.6923   -1.8215    0.0000 C   0  0  0  0  0  0  0  0  0  0  0  0
   -1.1320   -1.2159    0.0000 C   0  0  0  0  0  0  0  0  0  0  0  0
   -1.3763   -0.4279    0.0000 C   0  0  0  0  0  0  0  0  0  0  0  0
   -0.8160    0.1777    0.0000 C   0  0  1  0  0  0  0  0  0  0  0  0
   -1.1046    0.9678    0.0000 C   0  0  1  0  0  0  0  0  0  0  0  0
   -1.8870    1.2292    0.0000 O   0  0  0  0  0  0  0  0  0  0  0  0
   -2.5047    0.6823    0.0000 C   0  0  0  0  0  0  0  0  0  0  0  0
   -3.2872    0.9438    0.0000 C   0  0  0  0  0  0  0  0  0  0  0  0
   -0.3994    1.4254    0.0000 O   0  0  0  0  0  0  0  0  0  0  0  0
    0.4154    1.1548    0.0000 C   0  0  2  0  0  0  0  0  0  0  0  0
    1.3481    0.9341    0.0000 O   0  0  0  0  0  0  0  0  0  0  0  0
    2.1801    1.1470    0.0000 C   0  0  1  0  0  0  0  0  0  0  0  0
    2.8656    1.6061    0.0000 C   0  0  0  0  0  0  0  0  0  0  0  0
    2.6659    0.4492    0.0000 C   0  0  0  0  0  0  0  0  0  0  0  0
    2.1771   -0.2398    0.0000 C   0  0  0  0  0  0  0  0  0  0  0  0
    1.3196   -0.2510    0.0000 C   0  0  1  0  0  0  0  0  0  0  0  0
    1.2032   -1.0983    0.0000 C   0  0  1  0  0  0  0  0  0  0  0  0
    1.8916   -1.5529    0.0000 C   0  0  0  0  0  0  0  0  0  0  0  0
    0.4840   -1.5294    0.0000 C   0  0  0  0  0  0  0  0  0  0  0  0
   -0.0795   -0.9099    0.0000 C   0  0  0  0  0  0  0  0  0  0  0  0
    0.0166   -0.0550    0.0000 C   0  0  2  0  0  0  0  0  0  0  0  0
    0.7590    0.4444    0.0000 C   0  0  1  0  0  0  0  0  0  0  0  0
    0.9975    1.3953    0.0000 O   0  0  0  0  0  0  0  0  0  0  0  0
    1.7237    1.8556    0.0000 O   0  0  0  0  0  0  0  0  0  0  0  0
   -0.5913   -0.6162    0.0000 H   0  0  0  0  0  0  0  0  0  0  0  0
    1.6707    0.4956    0.0000 H   0  0  0  0  0  0  0  0  0  0  0  0
   -2.2978   -1.2612    0.0000 H   0  0  0  0  0  0  0  0  0  0  0  0
   -2.2526   -2.4271    0.0000 H   0  0  0  0  0  0  0  0  0  0  0  0
   -1.0867   -2.3818    0.0000 H   0  0  0  0  0  0  0  0  0  0  0  0
   -0.4949   -1.7400    0.0000 H   0  0  0  0  0  0  0  0  0  0  0  0
   -0.3311   -1.0178    0.0000 H   0  0  0  0  0  0  0  0  0  0  0  0
   -2.0134    0.0962    0.0000 H   0  0  0  0  0  0  0  0  0  0  0  0
   -2.1772   -0.6260    0.0000 H   0  0  0  0  0  0  0  0  0  0  0  0
   -1.6798    0.3764    0.0000 H   0  0  0  0  0  0  0  0  0  0  0  0
   -2.9691    0.0004    0.0000 H   0  0  0  0  0  0  0  0  0  0  0  0
   -2.6695    1.4907    0.0000 H   0  0  0  0  0  0  0  0  0  0  0  0
   -3.6556    1.6820    0.0000 H   0  0  0  0  0  0  0  0  0  0  0  0
   -4.0955    0.7790    0.0000 H   0  0  0  0  0  0  0  0  0  0  0  0
   -3.3372    0.1203    0.0000 H   0  0  0  0  0  0  0  0  0  0  0  0
    0.3861    1.9792    0.0000 H   0  0  0  0  0  0  0  0  0  0  0  0
    3.3247    0.9207    0.0000 H   0  0  0  0  0  0  0  0  0  0  0  0
    3.5510    2.0652    0.0000 H   0  0  0  0  0  0  0  0  0  0  0  0
    2.4064    2.2916    0.0000 H   0  0  0  0  0  0  0  0  0  0  0  0
    2.9248   -0.3341    0.0000 H   0  0  0  0  0  0  0  0  0  0  0  0
    3.4502    0.1935    0.0000 H   0  0  0  0  0  0  0  0  0  0  0  0
    1.7412   -0.9402    0.0000 H   0  0  0  0  0  0  0  0  0  0  0  0
    2.5317   -0.9847    0.0000 H   0  0  0  0  0  0  0  0  0  0  0  0
    0.5148   -0.6436    0.0000 H   0  0  0  0  0  0  0  0  0  0  0  0
    1.1795   -1.9694    0.0000 H   0  0  0  0  0  0  0  0  0  0  0  0
    1.9503   -2.3758    0.0000 H   0  0  0  0  0  0  0  0  0  0  0  0
    2.6557   -1.8641    0.0000 H   0  0  0  0  0  0  0  0  0  0  0  0
   -0.2457   -1.9145    0.0000 H   0  0  0  0  0  0  0  0  0  0  0  0
    0.4516   -2.3538    0.0000 H   0  0  0  0  0  0  0  0  0  0  0  0
   -0.4523   -0.1740    0.0000 H   0  0  0  0  0  0  0  0  0  0  0  0
    0.7281   -1.0784    0.0000 H   0  0  0  0  0  0  0  0  0  0  0  0
   -0.1147    0.7595    0.0000 H   0  0  0  0  0  0  0  0  0  0  0  0
  1  2  1  0  0  0  0
  1 27  1  0  0  0  0
  1 28  1  0  0  0  0
  1 29  1  0  0  0  0
  2  3  1  0  0  0  0
  2 30  1  0  0  0  0
  2 31  1  0  0  0  0
  4  3  1  1  0  0  0
  3 32  1  0  0  0  0
  3 33  1  0  0  0  0
  4 25  1  6  0  0  0
  4  5  1  0  0  0  0
 21  4  1  0  0  0  0
  5  6  1  1  0  0  0
  5  9  1  0  0  0  0
  5 34  1  6  0  0  0
  6  7  1  0  0  0  0
  7  8  1  0  0  0  0
  7 35  1  0  0  0  0
  7 36  1  0  0  0  0
  8 37  1  0  0  0  0
  8 38  1  0  0  0  0
  8 39  1  0  0  0  0
 10  9  1  0  0  0  0
 10 11  1  0  0  0  0
 22 10  1  0  0  0  0
 10 40  1  1  0  0  0
 12 11  1  0  0  0  0
 12 13  1  1  0  0  0
 12 14  1  0  0  0  0
 12 24  1  0  0  0  0
 13 41  1  0  0  0  0
 13 42  1  0  0  0  0
 13 43  1  0  0  0  0
 14 15  1  0  0  0  0
 14 44  1  0  0  0  0
 14 45  1  0  0  0  0
 16 15  1  0  0  0  0
 15 46  1  0  0  0  0
 15 47  1  0  0  0  0
 16 26  1  6  0  0  0
 16 17  1  0  0  0  0
 22 16  1  0  0  0  0
 17 18  1  0  0  0  0
 17 19  1  1  0  0  0
 17 48  1  6  0  0  0
 18 49  1  0  0  0  0
 18 50  1  0  0  0  0
 18 51  1  0  0  0  0
 19 20  1  0  0  0  0
 19 52  1  0  0  0  0
 19 53  1  0  0  0  0
 21 20  1  0  0  0  0
 20 54  1  0  0  0  0
 20 55  1  0  0  0  0
 22 21  1  0  0  0  0
 21 56  1  6  0  0  0
 22 23  1  6  0  0  0
 23 24  1  0  0  0  0
M  END
