
  Mrv171c004271813302D          

 47 50  0  0  0  0            999 V2000
   -3.4652   -1.7674    0.0000 C   0  0  0  0  0  0  0  0  0  0  0  0
   -2.6803   -1.5132    0.0000 C   0  0  0  0  0  0  0  0  0  0  0  0
   -2.5080   -0.7064    0.0000 O   0  0  0  0  0  0  0  0  0  0  0  0
   -1.7232   -0.4522    0.0000 C   0  0  1  0  0  0  0  0  0  0  0  0
   -1.4114    0.3382    0.0000 C   0  0  0  0  0  0  0  0  0  0  0  0
   -0.5955    0.6127    0.0000 C   0  0  2  0  0  0  0  0  0  0  0  0
   -0.6835    1.4538    0.0000 C   0  0  0  0  0  0  0  0  0  0  0  0
   -0.1331    2.0709    0.0000 C   0  0  0  0  0  0  0  0  0  0  0  0
    0.6006    1.6655    0.0000 C   0  0  1  0  0  0  0  0  0  0  0  0
    1.2790    2.1350    0.0000 C   0  0  0  0  0  0  0  0  0  0  0  0
    0.7243    0.8164    0.0000 C   0  0  2  0  0  0  0  0  0  0  0  0
    1.5826    0.7597    0.0000 C   0  0  0  0  0  0  0  0  0  0  0  0
    2.0668    0.0558    0.0000 C   0  0  0  0  0  0  0  0  0  0  0  0
    1.5629   -0.6439    0.0000 C   0  0  1  0  0  0  0  0  0  0  0  0
    2.2333   -1.1247    0.0000 C   0  0  0  0  0  0  0  0  0  0  0  0
    1.0631   -1.3436    0.0000 O   0  0  0  0  0  0  0  0  0  0  0  0
    0.3932   -0.8092    0.0000 O   0  0  0  0  0  0  0  0  0  0  0  0
    0.1445    0.1217    0.0000 C   0  0  1  0  0  0  0  0  0  0  0  0
   -0.1852   -0.6088    0.0000 C   0  0  2  0  0  0  0  0  0  0  0  0
   -1.0135   -0.9058    0.0000 O   0  0  0  0  0  0  0  0  0  0  0  0
    0.7501   -0.3588    0.0000 O   0  0  0  0  0  0  0  0  0  0  0  0
    1.0491    0.0580    0.0000 H   0  0  0  0  0  0  0  0  0  0  0  0
   -3.7194   -0.9825    0.0000 H   0  0  0  0  0  0  0  0  0  0  0  0
   -4.2501   -2.0216    0.0000 H   0  0  0  0  0  0  0  0  0  0  0  0
   -3.2110   -2.5522    0.0000 H   0  0  0  0  0  0  0  0  0  0  0  0
   -2.3810   -2.2820    0.0000 H   0  0  0  0  0  0  0  0  0  0  0  0
   -1.8849   -1.7321    0.0000 H   0  0  0  0  0  0  0  0  0  0  0  0
   -1.8283   -1.2705    0.0000 H   0  0  0  0  0  0  0  0  0  0  0  0
   -1.6662    1.1229    0.0000 H   0  0  0  0  0  0  0  0  0  0  0  0
   -2.1820    0.6328    0.0000 H   0  0  0  0  0  0  0  0  0  0  0  0
    0.1102    1.0401    0.0000 H   0  0  0  0  0  0  0  0  0  0  0  0
   -1.2851    2.0184    0.0000 H   0  0  0  0  0  0  0  0  0  0  0  0
   -1.5016    1.3473    0.0000 H   0  0  0  0  0  0  0  0  0  0  0  0
    0.1342    2.8514    0.0000 H   0  0  0  0  0  0  0  0  0  0  0  0
   -0.6438    2.7187    0.0000 H   0  0  0  0  0  0  0  0  0  0  0  0
    1.3571    1.3364    0.0000 H   0  0  0  0  0  0  0  0  0  0  0  0
    2.0924    1.9969    0.0000 H   0  0  0  0  0  0  0  0  0  0  0  0
    1.6259    2.8835    0.0000 H   0  0  0  0  0  0  0  0  0  0  0  0
    0.6479    2.6663    0.0000 H   0  0  0  0  0  0  0  0  0  0  0  0
    2.4076    0.7616    0.0000 H   0  0  0  0  0  0  0  0  0  0  0  0
    2.0470    1.4415    0.0000 H   0  0  0  0  0  0  0  0  0  0  0  0
    2.5761   -0.5932    0.0000 H   0  0  0  0  0  0  0  0  0  0  0  0
    2.8801   -0.0826    0.0000 H   0  0  0  0  0  0  0  0  0  0  0  0
    1.5380   -1.5688    0.0000 H   0  0  0  0  0  0  0  0  0  0  0  0
    2.3875   -1.9352    0.0000 H   0  0  0  0  0  0  0  0  0  0  0  0
    3.0431   -1.2825    0.0000 H   0  0  0  0  0  0  0  0  0  0  0  0
   -0.1808   -1.4338    0.0000 H   0  0  0  0  0  0  0  0  0  0  0  0
  1  2  1  0  0  0  0
  1 23  1  0  0  0  0
  1 24  1  0  0  0  0
  1 25  1  0  0  0  0
  2  3  1  0  0  0  0
  2 26  1  0  0  0  0
  2 27  1  0  0  0  0
  4  3  1  1  0  0  0
  4  5  1  0  0  0  0
  4 20  1  0  0  0  0
  4 28  1  6  0  0  0
  6  5  1  0  0  0  0
  5 29  1  0  0  0  0
  5 30  1  0  0  0  0
  6  7  1  0  0  0  0
 18  6  1  0  0  0  0
  6 31  1  1  0  0  0
  7  8  1  0  0  0  0
  7 32  1  0  0  0  0
  7 33  1  0  0  0  0
  9  8  1  0  0  0  0
  8 34  1  0  0  0  0
  8 35  1  0  0  0  0
  9 10  1  1  0  0  0
 11  9  1  0  0  0  0
  9 36  1  6  0  0  0
 10 37  1  0  0  0  0
 10 38  1  0  0  0  0
 10 39  1  0  0  0  0
 11 22  1  1  0  0  0
 11 12  1  0  0  0  0
 18 11  1  0  0  0  0
 12 13  1  0  0  0  0
 12 40  1  0  0  0  0
 12 41  1  0  0  0  0
 14 13  1  0  0  0  0
 13 42  1  0  0  0  0
 13 43  1  0  0  0  0
 14 15  1  6  0  0  0
 14 16  1  0  0  0  0
 14 21  1  0  0  0  0
 15 44  1  0  0  0  0
 15 45  1  0  0  0  0
 15 46  1  0  0  0  0
 16 17  1  0  0  0  0
 18 17  1  1  0  0  0
 18 19  1  0  0  0  0
 19 20  1  0  0  0  0
 19 21  1  0  0  0  0
 19 47  1  6  0  0  0
M  END
