
  Mrv171c004271813302D          

 55 58  0  0  0  0            999 V2000
   -3.7109    0.2050    0.0000 C   0  0  0  0  0  0  0  0  0  0  0  0
   -3.0932    0.7519    0.0000 C   0  0  0  0  0  0  0  0  0  0  0  0
   -2.3107    0.4905    0.0000 C   0  0  0  0  0  0  0  0  0  0  0  0
   -1.6931    1.0374    0.0000 C   0  0  0  0  0  0  0  0  0  0  0  0
   -0.9106    0.7759    0.0000 C   0  0  1  0  0  0  0  0  0  0  0  0
   -0.2055    1.2335    0.0000 O   0  0  0  0  0  0  0  0  0  0  0  0
    0.6094    0.9629    0.0000 C   0  0  2  0  0  0  0  0  0  0  0  0
    1.5420    0.7422    0.0000 O   0  0  0  0  0  0  0  0  0  0  0  0
    2.3741    0.9552    0.0000 C   0  0  1  0  0  0  0  0  0  0  0  0
    3.0595    1.4143    0.0000 C   0  0  0  0  0  0  0  0  0  0  0  0
    2.8598    0.2574    0.0000 C   0  0  0  0  0  0  0  0  0  0  0  0
    2.3710   -0.4316    0.0000 C   0  0  0  0  0  0  0  0  0  0  0  0
    1.5136   -0.4428    0.0000 C   0  0  1  0  0  0  0  0  0  0  0  0
    1.3972   -1.2901    0.0000 C   0  0  1  0  0  0  0  0  0  0  0  0
    2.0856   -1.7447    0.0000 C   0  0  0  0  0  0  0  0  0  0  0  0
    0.6780   -1.7213    0.0000 C   0  0  0  0  0  0  0  0  0  0  0  0
    0.1144   -1.1018    0.0000 C   0  0  0  0  0  0  0  0  0  0  0  0
    0.2106   -0.2469    0.0000 C   0  0  1  0  0  0  0  0  0  0  0  0
   -0.6221   -0.0142    0.0000 C   0  0  1  0  0  0  0  0  0  0  0  0
   -1.1823   -0.6198    0.0000 C   0  0  0  0  0  0  0  0  0  0  0  0
    0.9529    0.2526    0.0000 C   0  0  1  0  0  0  0  0  0  0  0  0
    1.1915    1.2034    0.0000 O   0  0  0  0  0  0  0  0  0  0  0  0
    1.9177    1.6638    0.0000 O   0  0  0  0  0  0  0  0  0  0  0  0
    1.8647    0.3037    0.0000 H   0  0  0  0  0  0  0  0  0  0  0  0
   -0.3973   -0.8080    0.0000 H   0  0  0  0  0  0  0  0  0  0  0  0
   -4.2578    0.8227    0.0000 H   0  0  0  0  0  0  0  0  0  0  0  0
   -4.3286   -0.3419    0.0000 H   0  0  0  0  0  0  0  0  0  0  0  0
   -3.1640   -0.4126    0.0000 H   0  0  0  0  0  0  0  0  0  0  0  0
   -2.8777    1.5483    0.0000 H   0  0  0  0  0  0  0  0  0  0  0  0
   -3.6033    1.4004    0.0000 H   0  0  0  0  0  0  0  0  0  0  0  0
   -2.5263   -0.3059    0.0000 H   0  0  0  0  0  0  0  0  0  0  0  0
   -1.8007   -0.1580    0.0000 H   0  0  0  0  0  0  0  0  0  0  0  0
   -1.4775    1.8337    0.0000 H   0  0  0  0  0  0  0  0  0  0  0  0
   -2.2031    1.6858    0.0000 H   0  0  0  0  0  0  0  0  0  0  0  0
   -1.4858    0.1845    0.0000 H   0  0  0  0  0  0  0  0  0  0  0  0
    0.5800    1.7874    0.0000 H   0  0  0  0  0  0  0  0  0  0  0  0
    3.5186    0.7288    0.0000 H   0  0  0  0  0  0  0  0  0  0  0  0
    3.7450    1.8734    0.0000 H   0  0  0  0  0  0  0  0  0  0  0  0
    2.6004    2.0997    0.0000 H   0  0  0  0  0  0  0  0  0  0  0  0
    3.1188   -0.5259    0.0000 H   0  0  0  0  0  0  0  0  0  0  0  0
    3.6442    0.0016    0.0000 H   0  0  0  0  0  0  0  0  0  0  0  0
    1.9351   -1.1321    0.0000 H   0  0  0  0  0  0  0  0  0  0  0  0
    2.7257   -1.1765    0.0000 H   0  0  0  0  0  0  0  0  0  0  0  0
    0.7087   -0.8355    0.0000 H   0  0  0  0  0  0  0  0  0  0  0  0
    1.3734   -2.1612    0.0000 H   0  0  0  0  0  0  0  0  0  0  0  0
    2.1443   -2.5677    0.0000 H   0  0  0  0  0  0  0  0  0  0  0  0
    2.8496   -2.0560    0.0000 H   0  0  0  0  0  0  0  0  0  0  0  0
   -0.0486   -2.1121    0.0000 H   0  0  0  0  0  0  0  0  0  0  0  0
    0.4189   -2.5046    0.0000 H   0  0  0  0  0  0  0  0  0  0  0  0
   -0.7036   -0.9945    0.0000 H   0  0  0  0  0  0  0  0  0  0  0  0
   -0.4855   -1.6681    0.0000 H   0  0  0  0  0  0  0  0  0  0  0  0
    0.0792    0.5676    0.0000 H   0  0  0  0  0  0  0  0  0  0  0  0
   -1.9995   -0.7335    0.0000 H   0  0  0  0  0  0  0  0  0  0  0  0
   -1.6834   -1.2752    0.0000 H   0  0  0  0  0  0  0  0  0  0  0  0
   -1.0778   -1.4381    0.0000 H   0  0  0  0  0  0  0  0  0  0  0  0
  1  2  1  0  0  0  0
  1 26  1  0  0  0  0
  1 27  1  0  0  0  0
  1 28  1  0  0  0  0
  2  3  1  0  0  0  0
  2 29  1  0  0  0  0
  2 30  1  0  0  0  0
  3  4  1  0  0  0  0
  3 31  1  0  0  0  0
  3 32  1  0  0  0  0
  5  4  1  1  0  0  0
  4 33  1  0  0  0  0
  4 34  1  0  0  0  0
  5  6  1  0  0  0  0
 19  5  1  0  0  0  0
  5 35  1  6  0  0  0
  7  6  1  0  0  0  0
  7  8  1  0  0  0  0
 21  7  1  0  0  0  0
  7 36  1  1  0  0  0
  9  8  1  0  0  0  0
  9 10  1  1  0  0  0
  9 11  1  0  0  0  0
  9 23  1  0  0  0  0
 10 37  1  0  0  0  0
 10 38  1  0  0  0  0
 10 39  1  0  0  0  0
 11 12  1  0  0  0  0
 11 40  1  0  0  0  0
 11 41  1  0  0  0  0
 13 12  1  0  0  0  0
 12 42  1  0  0  0  0
 12 43  1  0  0  0  0
 13 24  1  6  0  0  0
 13 14  1  0  0  0  0
 21 13  1  0  0  0  0
 14 15  1  0  0  0  0
 14 16  1  1  0  0  0
 14 44  1  6  0  0  0
 15 45  1  0  0  0  0
 15 46  1  0  0  0  0
 15 47  1  0  0  0  0
 16 17  1  0  0  0  0
 16 48  1  0  0  0  0
 16 49  1  0  0  0  0
 18 17  1  0  0  0  0
 17 50  1  0  0  0  0
 17 51  1  0  0  0  0
 18 19  1  0  0  0  0
 21 18  1  0  0  0  0
 18 52  1  6  0  0  0
 19 25  1  6  0  0  0
 19 20  1  1  0  0  0
 20 53  1  0  0  0  0
 20 54  1  0  0  0  0
 20 55  1  0  0  0  0
 21 22  1  6  0  0  0
 22 23  1  0  0  0  0
M  END
