
  Mrv171c004271813302D          

 63 67  0  0  0  0            999 V2000
   -6.3228    1.0412    0.0000 C   0  0  0  0  0  0  0  0  0  0  0  0
   -5.5404    0.7798    0.0000 O   0  0  0  0  0  0  0  0  0  0  0  0
   -4.9227    1.3267    0.0000 C   0  0  0  0  0  0  0  0  0  0  0  0
   -5.0875    2.1351    0.0000 O   0  0  0  0  0  0  0  0  0  0  0  0
   -4.1402    1.0652    0.0000 C   0  0  0  0  0  0  0  0  0  0  0  0
   -3.5225    1.6121    0.0000 C   0  0  0  0  0  0  0  0  0  0  0  0
   -2.7401    1.3507    0.0000 C   0  0  0  0  0  0  0  0  0  0  0  0
   -2.5753    0.5423    0.0000 C   0  0  0  0  0  0  0  0  0  0  0  0
   -1.7928    0.2808    0.0000 C   0  0  0  0  0  0  0  0  0  0  0  0
   -1.1751    0.8277    0.0000 O   0  0  0  0  0  0  0  0  0  0  0  0
   -0.3927    0.5663    0.0000 C   0  0  1  0  0  0  0  0  0  0  0  0
    0.3125    1.0239    0.0000 O   0  0  0  0  0  0  0  0  0  0  0  0
    1.1273    0.7533    0.0000 C   0  0  2  0  0  0  0  0  0  0  0  0
    2.0600    0.5326    0.0000 O   0  0  0  0  0  0  0  0  0  0  0  0
    2.8920    0.7455    0.0000 C   0  0  1  0  0  0  0  0  0  0  0  0
    3.5775    1.2046    0.0000 C   0  0  0  0  0  0  0  0  0  0  0  0
    3.3778    0.0477    0.0000 C   0  0  0  0  0  0  0  0  0  0  0  0
    2.8890   -0.6413    0.0000 C   0  0  0  0  0  0  0  0  0  0  0  0
    2.0315   -0.6525    0.0000 C   0  0  1  0  0  0  0  0  0  0  0  0
    1.9151   -1.4998    0.0000 C   0  0  1  0  0  0  0  0  0  0  0  0
    2.6035   -1.9544    0.0000 C   0  0  0  0  0  0  0  0  0  0  0  0
    1.1959   -1.9309    0.0000 C   0  0  0  0  0  0  0  0  0  0  0  0
    0.6324   -1.3114    0.0000 C   0  0  0  0  0  0  0  0  0  0  0  0
    0.7285   -0.4565    0.0000 C   0  0  1  0  0  0  0  0  0  0  0  0
   -0.1041   -0.2238    0.0000 C   0  0  1  0  0  0  0  0  0  0  0  0
   -0.6644   -0.8294    0.0000 C   0  0  0  0  0  0  0  0  0  0  0  0
    1.4709    0.0429    0.0000 C   0  0  1  0  0  0  0  0  0  0  0  0
    1.7094    0.9938    0.0000 O   0  0  0  0  0  0  0  0  0  0  0  0
    2.4356    1.4541    0.0000 O   0  0  0  0  0  0  0  0  0  0  0  0
   -3.1929   -0.0046    0.0000 C   0  0  0  0  0  0  0  0  0  0  0  0
   -3.9754    0.2568    0.0000 C   0  0  0  0  0  0  0  0  0  0  0  0
    2.3826    0.0941    0.0000 H   0  0  0  0  0  0  0  0  0  0  0  0
    0.1206   -1.0177    0.0000 H   0  0  0  0  0  0  0  0  0  0  0  0
   -6.0614    1.8237    0.0000 H   0  0  0  0  0  0  0  0  0  0  0  0
   -7.1053    1.3027    0.0000 H   0  0  0  0  0  0  0  0  0  0  0  0
   -6.5843    0.2588    0.0000 H   0  0  0  0  0  0  0  0  0  0  0  0
   -3.6873    2.4205    0.0000 H   0  0  0  0  0  0  0  0  0  0  0  0
   -2.1224    1.8976    0.0000 H   0  0  0  0  0  0  0  0  0  0  0  0
   -2.0083   -0.5155    0.0000 H   0  0  0  0  0  0  0  0  0  0  0  0
   -1.2827   -0.3676    0.0000 H   0  0  0  0  0  0  0  0  0  0  0  0
   -0.9679   -0.0251    0.0000 H   0  0  0  0  0  0  0  0  0  0  0  0
    1.0980    1.5777    0.0000 H   0  0  0  0  0  0  0  0  0  0  0  0
    4.0366    0.5192    0.0000 H   0  0  0  0  0  0  0  0  0  0  0  0
    4.2629    1.6637    0.0000 H   0  0  0  0  0  0  0  0  0  0  0  0
    3.1184    1.8901    0.0000 H   0  0  0  0  0  0  0  0  0  0  0  0
    3.6368   -0.7356    0.0000 H   0  0  0  0  0  0  0  0  0  0  0  0
    4.1621   -0.2080    0.0000 H   0  0  0  0  0  0  0  0  0  0  0  0
    2.4531   -1.3417    0.0000 H   0  0  0  0  0  0  0  0  0  0  0  0
    3.2436   -1.3862    0.0000 H   0  0  0  0  0  0  0  0  0  0  0  0
    1.2267   -1.0451    0.0000 H   0  0  0  0  0  0  0  0  0  0  0  0
    1.8914   -2.3709    0.0000 H   0  0  0  0  0  0  0  0  0  0  0  0
    2.6622   -2.7773    0.0000 H   0  0  0  0  0  0  0  0  0  0  0  0
    3.3676   -2.2656    0.0000 H   0  0  0  0  0  0  0  0  0  0  0  0
    0.4694   -2.3218    0.0000 H   0  0  0  0  0  0  0  0  0  0  0  0
    0.9368   -2.7142    0.0000 H   0  0  0  0  0  0  0  0  0  0  0  0
   -0.1856   -1.2041    0.0000 H   0  0  0  0  0  0  0  0  0  0  0  0
    0.0324   -1.8777    0.0000 H   0  0  0  0  0  0  0  0  0  0  0  0
    0.5972    0.3580    0.0000 H   0  0  0  0  0  0  0  0  0  0  0  0
   -1.4815   -0.9431    0.0000 H   0  0  0  0  0  0  0  0  0  0  0  0
   -1.1655   -1.4848    0.0000 H   0  0  0  0  0  0  0  0  0  0  0  0
   -0.5599   -1.6478    0.0000 H   0  0  0  0  0  0  0  0  0  0  0  0
   -3.0281   -0.8130    0.0000 H   0  0  0  0  0  0  0  0  0  0  0  0
   -4.5931   -0.2901    0.0000 H   0  0  0  0  0  0  0  0  0  0  0  0
  1  2  1  0  0  0  0
  1 34  1  0  0  0  0
  1 35  1  0  0  0  0
  1 36  1  0  0  0  0
  2  3  1  0  0  0  0
  3  4  2  0  0  0  0
  3  5  1  0  0  0  0
  5  6  1  0  0  0  0
  5 31  2  0  0  0  0
  6  7  2  0  0  0  0
  6 37  1  0  0  0  0
  7  8  1  0  0  0  0
  7 38  1  0  0  0  0
  8  9  1  0  0  0  0
  8 30  2  0  0  0  0
  9 10  1  0  0  0  0
  9 39  1  0  0  0  0
  9 40  1  0  0  0  0
 11 10  1  1  0  0  0
 11 12  1  0  0  0  0
 25 11  1  0  0  0  0
 11 41  1  6  0  0  0
 13 12  1  0  0  0  0
 13 14  1  0  0  0  0
 27 13  1  0  0  0  0
 13 42  1  1  0  0  0
 15 14  1  0  0  0  0
 15 16  1  1  0  0  0
 15 17  1  0  0  0  0
 15 29  1  0  0  0  0
 16 43  1  0  0  0  0
 16 44  1  0  0  0  0
 16 45  1  0  0  0  0
 17 18  1  0  0  0  0
 17 46  1  0  0  0  0
 17 47  1  0  0  0  0
 19 18  1  0  0  0  0
 18 48  1  0  0  0  0
 18 49  1  0  0  0  0
 19 32  1  6  0  0  0
 19 20  1  0  0  0  0
 27 19  1  0  0  0  0
 20 21  1  0  0  0  0
 20 22  1  1  0  0  0
 20 50  1  6  0  0  0
 21 51  1  0  0  0  0
 21 52  1  0  0  0  0
 21 53  1  0  0  0  0
 22 23  1  0  0  0  0
 22 54  1  0  0  0  0
 22 55  1  0  0  0  0
 24 23  1  0  0  0  0
 23 56  1  0  0  0  0
 23 57  1  0  0  0  0
 24 25  1  0  0  0  0
 27 24  1  0  0  0  0
 24 58  1  6  0  0  0
 25 33  1  6  0  0  0
 25 26  1  1  0  0  0
 26 59  1  0  0  0  0
 26 60  1  0  0  0  0
 26 61  1  0  0  0  0
 27 28  1  6  0  0  0
 28 29  1  0  0  0  0
 30 31  1  0  0  0  0
 30 62  1  0  0  0  0
 31 63  1  0  0  0  0
M  END
