
  Mrv171c004271813302D          

 48 51  0  0  0  0            999 V2000
   -2.2512   -1.7748    0.0000 C   0  0  0  0  0  0  0  0  0  0  0  0
   -1.6909   -1.1692    0.0000 C   0  0  0  0  0  0  0  0  0  0  0  0
   -1.9352   -0.3812    0.0000 C   0  0  0  0  0  0  0  0  0  0  0  0
   -1.3749    0.2244    0.0000 C   0  0  1  0  0  0  0  0  0  0  0  0
   -1.6634    1.0145    0.0000 C   0  0  0  0  0  0  0  0  0  0  0  0
   -2.4459    1.2760    0.0000 O   0  0  0  0  0  0  0  0  0  0  0  0
   -0.9583    1.4721    0.0000 O   0  0  0  0  0  0  0  0  0  0  0  0
   -0.1435    1.2015    0.0000 C   0  0  2  0  0  0  0  0  0  0  0  0
    0.7892    0.9808    0.0000 O   0  0  0  0  0  0  0  0  0  0  0  0
    1.6212    1.1937    0.0000 C   0  0  1  0  0  0  0  0  0  0  0  0
    2.3067    1.6529    0.0000 C   0  0  0  0  0  0  0  0  0  0  0  0
    2.1070    0.4960    0.0000 C   0  0  0  0  0  0  0  0  0  0  0  0
    1.6182   -0.1931    0.0000 C   0  0  0  0  0  0  0  0  0  0  0  0
    0.7607   -0.2042    0.0000 C   0  0  1  0  0  0  0  0  0  0  0  0
    0.6443   -1.0515    0.0000 C   0  0  1  0  0  0  0  0  0  0  0  0
    1.3328   -1.5062    0.0000 C   0  0  0  0  0  0  0  0  0  0  0  0
   -0.0749   -1.4827    0.0000 C   0  0  0  0  0  0  0  0  0  0  0  0
   -0.6384   -0.8632    0.0000 C   0  0  0  0  0  0  0  0  0  0  0  0
   -0.5423   -0.0083    0.0000 C   0  0  2  0  0  0  0  0  0  0  0  0
    0.2001    0.4912    0.0000 C   0  0  1  0  0  0  0  0  0  0  0  0
    0.4387    1.4420    0.0000 O   0  0  0  0  0  0  0  0  0  0  0  0
    1.1648    1.9024    0.0000 O   0  0  0  0  0  0  0  0  0  0  0  0
   -1.1502   -0.5694    0.0000 H   0  0  0  0  0  0  0  0  0  0  0  0
    1.1119    0.5423    0.0000 H   0  0  0  0  0  0  0  0  0  0  0  0
   -2.8567   -1.2145    0.0000 H   0  0  0  0  0  0  0  0  0  0  0  0
   -2.8114   -2.3803    0.0000 H   0  0  0  0  0  0  0  0  0  0  0  0
   -1.6456   -2.3350    0.0000 H   0  0  0  0  0  0  0  0  0  0  0  0
   -1.0538   -1.6933    0.0000 H   0  0  0  0  0  0  0  0  0  0  0  0
   -0.8900   -0.9711    0.0000 H   0  0  0  0  0  0  0  0  0  0  0  0
   -2.5723    0.1429    0.0000 H   0  0  0  0  0  0  0  0  0  0  0  0
   -2.7360   -0.5793    0.0000 H   0  0  0  0  0  0  0  0  0  0  0  0
   -0.1728    2.0260    0.0000 H   0  0  0  0  0  0  0  0  0  0  0  0
    2.7658    0.9674    0.0000 H   0  0  0  0  0  0  0  0  0  0  0  0
    2.9921    2.1120    0.0000 H   0  0  0  0  0  0  0  0  0  0  0  0
    1.8476    2.3383    0.0000 H   0  0  0  0  0  0  0  0  0  0  0  0
    2.3660   -0.2873    0.0000 H   0  0  0  0  0  0  0  0  0  0  0  0
    2.8914    0.2402    0.0000 H   0  0  0  0  0  0  0  0  0  0  0  0
    1.1823   -0.8935    0.0000 H   0  0  0  0  0  0  0  0  0  0  0  0
    1.9728   -0.9379    0.0000 H   0  0  0  0  0  0  0  0  0  0  0  0
   -0.0441   -0.5969    0.0000 H   0  0  0  0  0  0  0  0  0  0  0  0
    0.6206   -1.9226    0.0000 H   0  0  0  0  0  0  0  0  0  0  0  0
    1.3914   -2.3291    0.0000 H   0  0  0  0  0  0  0  0  0  0  0  0
    2.0968   -1.8174    0.0000 H   0  0  0  0  0  0  0  0  0  0  0  0
   -0.8045   -1.8677    0.0000 H   0  0  0  0  0  0  0  0  0  0  0  0
   -0.1072   -2.3071    0.0000 H   0  0  0  0  0  0  0  0  0  0  0  0
   -1.0112   -0.1272    0.0000 H   0  0  0  0  0  0  0  0  0  0  0  0
    0.1692   -1.0317    0.0000 H   0  0  0  0  0  0  0  0  0  0  0  0
   -0.6736    0.8062    0.0000 H   0  0  0  0  0  0  0  0  0  0  0  0
  1  2  1  0  0  0  0
  1 25  1  0  0  0  0
  1 26  1  0  0  0  0
  1 27  1  0  0  0  0
  2  3  1  0  0  0  0
  2 28  1  0  0  0  0
  2 29  1  0  0  0  0
  4  3  1  1  0  0  0
  3 30  1  0  0  0  0
  3 31  1  0  0  0  0
  4 23  1  6  0  0  0
  4  5  1  0  0  0  0
 19  4  1  0  0  0  0
  5  6  2  0  0  0  0
  5  7  1  0  0  0  0
  8  7  1  0  0  0  0
  8  9  1  0  0  0  0
 20  8  1  0  0  0  0
  8 32  1  1  0  0  0
 10  9  1  0  0  0  0
 10 11  1  1  0  0  0
 10 12  1  0  0  0  0
 10 22  1  0  0  0  0
 11 33  1  0  0  0  0
 11 34  1  0  0  0  0
 11 35  1  0  0  0  0
 12 13  1  0  0  0  0
 12 36  1  0  0  0  0
 12 37  1  0  0  0  0
 14 13  1  0  0  0  0
 13 38  1  0  0  0  0
 13 39  1  0  0  0  0
 14 24  1  6  0  0  0
 14 15  1  0  0  0  0
 20 14  1  0  0  0  0
 15 16  1  0  0  0  0
 15 17  1  1  0  0  0
 15 40  1  6  0  0  0
 16 41  1  0  0  0  0
 16 42  1  0  0  0  0
 16 43  1  0  0  0  0
 17 18  1  0  0  0  0
 17 44  1  0  0  0  0
 17 45  1  0  0  0  0
 19 18  1  0  0  0  0
 18 46  1  0  0  0  0
 18 47  1  0  0  0  0
 20 19  1  0  0  0  0
 19 48  1  6  0  0  0
 20 21  1  6  0  0  0
 21 22  1  0  0  0  0
M  END
