
  Mrv171c004271813302D          

 57 60  0  0  0  0            999 V2000
    2.0291   -2.0819    0.0000 C   0  0  0  0  0  0  0  0  0  0  0  0
    1.3406   -1.6273    0.0000 C   0  0  1  0  0  0  0  0  0  0  0  0
    0.6214   -2.0585    0.0000 C   0  0  0  0  0  0  0  0  0  0  0  0
    0.0579   -1.4390    0.0000 C   0  0  0  0  0  0  0  0  0  0  0  0
    0.1541   -0.5841    0.0000 C   0  0  1  0  0  0  0  0  0  0  0  0
   -0.6786   -0.3514    0.0000 C   0  0  1  0  0  0  0  0  0  0  0  0
   -1.2389   -0.9570    0.0000 C   0  0  0  0  0  0  0  0  0  0  0  0
   -0.9671    0.4387    0.0000 C   0  0  1  0  0  0  0  0  0  0  0  0
   -1.7496    0.7002    0.0000 O   0  0  0  0  0  0  0  0  0  0  0  0
   -1.9144    1.5085    0.0000 O   0  0  0  0  0  0  0  0  0  0  0  0
   -2.6969    1.7700    0.0000 C   0  0  0  0  0  0  0  0  0  0  0  0
   -3.4793    2.0315    0.0000 C   0  0  0  0  0  0  0  0  0  0  0  0
   -2.4354    2.5525    0.0000 C   0  0  0  0  0  0  0  0  0  0  0  0
   -2.9583    0.9875    0.0000 C   0  0  0  0  0  0  0  0  0  0  0  0
   -0.2620    0.8963    0.0000 O   0  0  0  0  0  0  0  0  0  0  0  0
    0.5528    0.6257    0.0000 C   0  0  2  0  0  0  0  0  0  0  0  0
    1.4855    0.4050    0.0000 O   0  0  0  0  0  0  0  0  0  0  0  0
    2.3176    0.6180    0.0000 C   0  0  1  0  0  0  0  0  0  0  0  0
    3.0030    1.0771    0.0000 C   0  0  0  0  0  0  0  0  0  0  0  0
    2.8033   -0.0798    0.0000 C   0  0  0  0  0  0  0  0  0  0  0  0
    2.3145   -0.7688    0.0000 C   0  0  0  0  0  0  0  0  0  0  0  0
    1.4571   -0.7800    0.0000 C   0  0  2  0  0  0  0  0  0  0  0  0
    0.8964   -0.0846    0.0000 C   0  0  1  0  0  0  0  0  0  0  0  0
    1.1350    0.8662    0.0000 O   0  0  0  0  0  0  0  0  0  0  0  0
    1.8612    1.3266    0.0000 O   0  0  0  0  0  0  0  0  0  0  0  0
   -0.4539   -1.1452    0.0000 H   0  0  0  0  0  0  0  0  0  0  0  0
    0.6622   -1.0009    0.0000 H   0  0  0  0  0  0  0  0  0  0  0  0
    1.5744   -2.7704    0.0000 H   0  0  0  0  0  0  0  0  0  0  0  0
    2.7175   -2.5366    0.0000 H   0  0  0  0  0  0  0  0  0  0  0  0
    2.4837   -1.3935    0.0000 H   0  0  0  0  0  0  0  0  0  0  0  0
    2.0921   -1.2869    0.0000 H   0  0  0  0  0  0  0  0  0  0  0  0
    0.1235   -2.7163    0.0000 H   0  0  0  0  0  0  0  0  0  0  0  0
    0.9084   -2.8320    0.0000 H   0  0  0  0  0  0  0  0  0  0  0  0
   -0.7601   -1.3317    0.0000 H   0  0  0  0  0  0  0  0  0  0  0  0
   -0.5420   -2.0053    0.0000 H   0  0  0  0  0  0  0  0  0  0  0  0
    0.0227    0.2304    0.0000 H   0  0  0  0  0  0  0  0  0  0  0  0
   -1.5993   -0.2149    0.0000 H   0  0  0  0  0  0  0  0  0  0  0  0
   -2.0612   -1.0230    0.0000 H   0  0  0  0  0  0  0  0  0  0  0  0
   -1.4763   -1.7471    0.0000 H   0  0  0  0  0  0  0  0  0  0  0  0
   -1.0713    1.2571    0.0000 H   0  0  0  0  0  0  0  0  0  0  0  0
   -3.2179    2.8139    0.0000 H   0  0  0  0  0  0  0  0  0  0  0  0
   -4.2618    2.2929    0.0000 H   0  0  0  0  0  0  0  0  0  0  0  0
   -3.7408    1.2490    0.0000 H   0  0  0  0  0  0  0  0  0  0  0  0
   -1.8125    2.0115    0.0000 H   0  0  0  0  0  0  0  0  0  0  0  0
   -1.6972    2.9209    0.0000 H   0  0  0  0  0  0  0  0  0  0  0  0
   -2.4933    3.3755    0.0000 H   0  0  0  0  0  0  0  0  0  0  0  0
   -3.4993    0.3647    0.0000 H   0  0  0  0  0  0  0  0  0  0  0  0
   -2.5899    0.2494    0.0000 H   0  0  0  0  0  0  0  0  0  0  0  0
   -2.1354    1.0454    0.0000 H   0  0  0  0  0  0  0  0  0  0  0  0
    0.5235    1.4502    0.0000 H   0  0  0  0  0  0  0  0  0  0  0  0
    3.4621    0.3916    0.0000 H   0  0  0  0  0  0  0  0  0  0  0  0
    3.6884    1.5362    0.0000 H   0  0  0  0  0  0  0  0  0  0  0  0
    2.5439    1.7625    0.0000 H   0  0  0  0  0  0  0  0  0  0  0  0
    3.0623   -0.8631    0.0000 H   0  0  0  0  0  0  0  0  0  0  0  0
    3.5877   -0.3356    0.0000 H   0  0  0  0  0  0  0  0  0  0  0  0
    2.2185    0.0506    0.0000 H   0  0  0  0  0  0  0  0  0  0  0  0
    1.6946   -0.2245    0.0000 H   0  0  0  0  0  0  0  0  0  0  0  0
  2  1  1  1  0  0  0
  1 28  1  0  0  0  0
  1 29  1  0  0  0  0
  1 30  1  0  0  0  0
  2  3  1  0  0  0  0
 22  2  1  0  0  0  0
  2 31  1  6  0  0  0
  3  4  1  0  0  0  0
  3 32  1  0  0  0  0
  3 33  1  0  0  0  0
  5  4  1  0  0  0  0
  4 34  1  0  0  0  0
  4 35  1  0  0  0  0
  5  6  1  0  0  0  0
 23  5  1  0  0  0  0
  5 36  1  6  0  0  0
  6 26  1  6  0  0  0
  6  7  1  1  0  0  0
  6  8  1  0  0  0  0
  7 37  1  0  0  0  0
  7 38  1  0  0  0  0
  7 39  1  0  0  0  0
  8  9  1  1  0  0  0
  8 15  1  0  0  0  0
  8 40  1  6  0  0  0
  9 10  1  0  0  0  0
 10 11  1  0  0  0  0
 11 12  1  0  0  0  0
 11 13  1  0  0  0  0
 11 14  1  0  0  0  0
 12 41  1  0  0  0  0
 12 42  1  0  0  0  0
 12 43  1  0  0  0  0
 13 44  1  0  0  0  0
 13 45  1  0  0  0  0
 13 46  1  0  0  0  0
 14 47  1  0  0  0  0
 14 48  1  0  0  0  0
 14 49  1  0  0  0  0
 16 15  1  0  0  0  0
 16 17  1  0  0  0  0
 23 16  1  0  0  0  0
 16 50  1  1  0  0  0
 18 17  1  0  0  0  0
 18 19  1  1  0  0  0
 18 20  1  0  0  0  0
 18 25  1  0  0  0  0
 19 51  1  0  0  0  0
 19 52  1  0  0  0  0
 19 53  1  0  0  0  0
 20 21  1  0  0  0  0
 20 54  1  0  0  0  0
 20 55  1  0  0  0  0
 22 21  1  0  0  0  0
 21 56  1  0  0  0  0
 21 57  1  0  0  0  0
 22 27  1  6  0  0  0
 23 22  1  0  0  0  0
 23 24  1  6  0  0  0
 24 25  1  0  0  0  0
M  END
