
  Mrv171c004271813302D          

 56 60  0  0  0  0            999 V2000
   -2.4926   -0.0704    0.0000 C   0  0  0  0  0  0  0  0  0  0  0  0
   -2.7812    0.7197    0.0000 C   0  0  0  0  0  0  0  0  0  0  0  0
   -2.0761    1.1773    0.0000 O   0  0  0  0  0  0  0  0  0  0  0  0
   -1.2612    0.9067    0.0000 C   0  0  2  0  0  0  0  0  0  0  0  0
   -0.3285    0.6860    0.0000 O   0  0  0  0  0  0  0  0  0  0  0  0
    0.5035    0.8989    0.0000 C   0  0  1  0  0  0  0  0  0  0  0  0
    1.1889    1.3581    0.0000 C   0  0  0  0  0  0  0  0  0  0  0  0
    1.9293    0.9940    0.0000 C   0  0  0  0  0  0  0  0  0  0  0  0
    2.6147    1.4531    0.0000 C   0  0  0  0  0  0  0  0  0  0  0  0
    3.3550    1.0890    0.0000 C   0  0  0  0  0  0  0  0  0  0  0  0
    4.0405    1.5482    0.0000 C   0  0  0  0  0  0  0  0  0  0  0  0
    4.7808    1.1841    0.0000 C   0  0  0  0  0  0  0  0  0  0  0  0
    4.8357    0.3609    0.0000 C   0  0  0  0  0  0  0  0  0  0  0  0
    5.5760   -0.0031    0.0000 Cl  0  0  0  0  0  0  0  0  0  0  0  0
    4.1502   -0.0982    0.0000 C   0  0  0  0  0  0  0  0  0  0  0  0
    3.4099    0.2659    0.0000 C   0  0  0  0  0  0  0  0  0  0  0  0
    0.9892    0.2012    0.0000 C   0  0  0  0  0  0  0  0  0  0  0  0
    0.5004   -0.4879    0.0000 C   0  0  0  0  0  0  0  0  0  0  0  0
   -0.3570   -0.4990    0.0000 C   0  0  1  0  0  0  0  0  0  0  0  0
   -0.4734   -1.3463    0.0000 C   0  0  1  0  0  0  0  0  0  0  0  0
    0.2150   -1.8010    0.0000 C   0  0  0  0  0  0  0  0  0  0  0  0
   -1.1926   -1.7775    0.0000 C   0  0  0  0  0  0  0  0  0  0  0  0
   -1.7562   -1.1580    0.0000 C   0  0  0  0  0  0  0  0  0  0  0  0
   -1.6600   -0.3031    0.0000 C   0  0  2  0  0  0  0  0  0  0  0  0
   -0.9177    0.1964    0.0000 C   0  0  1  0  0  0  0  0  0  0  0  0
   -0.6791    1.1472    0.0000 O   0  0  0  0  0  0  0  0  0  0  0  0
    0.0471    1.6076    0.0000 O   0  0  0  0  0  0  0  0  0  0  0  0
   -3.2619   -0.3686    0.0000 H   0  0  0  0  0  0  0  0  0  0  0  0
   -2.7303   -0.8605    0.0000 H   0  0  0  0  0  0  0  0  0  0  0  0
   -0.0059    0.2475    0.0000 H   0  0  0  0  0  0  0  0  0  0  0  0
   -3.3434    1.3235    0.0000 H   0  0  0  0  0  0  0  0  0  0  0  0
   -3.5934    0.5752    0.0000 H   0  0  0  0  0  0  0  0  0  0  0  0
   -1.2906    1.7312    0.0000 H   0  0  0  0  0  0  0  0  0  0  0  0
    1.5093    2.1183    0.0000 H   0  0  0  0  0  0  0  0  0  0  0  0
    0.7704    2.0690    0.0000 H   0  0  0  0  0  0  0  0  0  0  0  0
    1.6089    0.2337    0.0000 H   0  0  0  0  0  0  0  0  0  0  0  0
    2.3477    0.2830    0.0000 H   0  0  0  0  0  0  0  0  0  0  0  0
    2.9351    2.2133    0.0000 H   0  0  0  0  0  0  0  0  0  0  0  0
    2.1962    2.1641    0.0000 H   0  0  0  0  0  0  0  0  0  0  0  0
    3.9856    2.3713    0.0000 H   0  0  0  0  0  0  0  0  0  0  0  0
    5.4663    1.6432    0.0000 H   0  0  0  0  0  0  0  0  0  0  0  0
    4.2051   -0.9214    0.0000 H   0  0  0  0  0  0  0  0  0  0  0  0
    2.7245   -0.1932    0.0000 H   0  0  0  0  0  0  0  0  0  0  0  0
    1.3871   -0.5216    0.0000 H   0  0  0  0  0  0  0  0  0  0  0  0
    1.3518    0.9422    0.0000 H   0  0  0  0  0  0  0  0  0  0  0  0
    0.0851   -1.2007    0.0000 H   0  0  0  0  0  0  0  0  0  0  0  0
    0.8979   -1.2108    0.0000 H   0  0  0  0  0  0  0  0  0  0  0  0
   -1.1619   -0.8917    0.0000 H   0  0  0  0  0  0  0  0  0  0  0  0
   -0.4986   -2.2151    0.0000 H   0  0  0  0  0  0  0  0  0  0  0  0
    0.2682   -2.6242    0.0000 H   0  0  0  0  0  0  0  0  0  0  0  0
    0.9759   -2.1198    0.0000 H   0  0  0  0  0  0  0  0  0  0  0  0
   -1.9190   -2.1688    0.0000 H   0  0  0  0  0  0  0  0  0  0  0  0
   -1.4510   -2.5610    0.0000 H   0  0  0  0  0  0  0  0  0  0  0  0
   -2.5742   -1.0507    0.0000 H   0  0  0  0  0  0  0  0  0  0  0  0
   -2.3561   -1.7243    0.0000 H   0  0  0  0  0  0  0  0  0  0  0  0
   -1.7914    0.5114    0.0000 H   0  0  0  0  0  0  0  0  0  0  0  0
  1 28  1  0  0  0  0
  1 29  1  0  0  0  0
  1  2  1  0  0  0  0
 24  1  1  0  0  0  0
  2  3  1  0  0  0  0
  2 31  1  0  0  0  0
  2 32  1  0  0  0  0
  4  3  1  0  0  0  0
  4  5  1  0  0  0  0
 25  4  1  0  0  0  0
  4 33  1  1  0  0  0
  6  5  1  0  0  0  0
  6  7  1  1  0  0  0
  6 17  1  0  0  0  0
  6 27  1  0  0  0  0
  7  8  1  0  0  0  0
  7 34  1  0  0  0  0
  7 35  1  0  0  0  0
  8  9  1  0  0  0  0
  8 36  1  0  0  0  0
  8 37  1  0  0  0  0
  9 10  1  0  0  0  0
  9 38  1  0  0  0  0
  9 39  1  0  0  0  0
 10 11  1  0  0  0  0
 10 16  2  0  0  0  0
 11 12  2  0  0  0  0
 11 40  1  0  0  0  0
 12 13  1  0  0  0  0
 12 41  1  0  0  0  0
 13 14  1  0  0  0  0
 13 15  2  0  0  0  0
 15 16  1  0  0  0  0
 15 42  1  0  0  0  0
 16 43  1  0  0  0  0
 17 18  1  0  0  0  0
 17 44  1  0  0  0  0
 17 45  1  0  0  0  0
 19 18  1  0  0  0  0
 18 46  1  0  0  0  0
 18 47  1  0  0  0  0
 19 30  1  6  0  0  0
 19 20  1  0  0  0  0
 25 19  1  0  0  0  0
 20 21  1  0  0  0  0
 20 22  1  1  0  0  0
 20 48  1  6  0  0  0
 21 49  1  0  0  0  0
 21 50  1  0  0  0  0
 21 51  1  0  0  0  0
 22 23  1  0  0  0  0
 22 52  1  0  0  0  0
 22 53  1  0  0  0  0
 24 23  1  0  0  0  0
 23 54  1  0  0  0  0
 23 55  1  0  0  0  0
 25 24  1  0  0  0  0
 24 56  1  6  0  0  0
 25 26  1  6  0  0  0
 26 27  1  0  0  0  0
M  END
