
  Mrv171c004271813302D          

 41 44  0  0  0  0            999 V2000
   -1.8112    1.6986    0.0000 C   0  0  0  0  0  0  0  0  0  0  0  0
   -0.9865    1.7183    0.0000 C   0  0  0  0  0  0  0  0  0  0  0  0
   -0.5570    1.0138    0.0000 C   0  0  1  0  0  0  0  0  0  0  0  0
   -1.2386    0.4910    0.0000 C   0  0  0  0  0  0  0  0  0  0  0  0
   -1.1514   -0.3534    0.0000 C   0  0  0  0  0  0  0  0  0  0  0  0
   -0.3279   -0.6176    0.0000 C   0  0  1  0  0  0  0  0  0  0  0  0
   -0.3800   -1.4484    0.0000 C   0  0  1  0  0  0  0  0  0  0  0  0
   -1.1126   -1.8278    0.0000 C   0  0  0  0  0  0  0  0  0  0  0  0
    0.3185   -1.8790    0.0000 C   0  0  0  0  0  0  0  0  0  0  0  0
    1.0501   -1.4927    0.0000 C   0  0  0  0  0  0  0  0  0  0  0  0
    1.0950   -0.6506    0.0000 C   0  0  1  0  0  0  0  0  0  0  0  0
    1.9134   -0.4419    0.0000 C   0  0  0  0  0  0  0  0  0  0  0  0
    2.1493    0.3526    0.0000 C   0  0  0  0  0  0  0  0  0  0  0  0
    2.9520    0.5431    0.0000 O   0  0  0  0  0  0  0  0  0  0  0  0
    1.5864    0.9513    0.0000 O   0  0  0  0  0  0  0  0  0  0  0  0
    0.7892    0.7297    0.0000 C   0  0  2  0  0  0  0  0  0  0  0  0
    0.2164    1.3785    0.0000 O   0  0  0  0  0  0  0  0  0  0  0  0
    0.4235   -0.1023    0.0000 C   0  0  1  0  0  0  0  0  0  0  0  0
   -0.0973    0.4072    0.0000 O   0  0  0  0  0  0  0  0  0  0  0  0
    0.3897   -1.0248    0.0000 H   0  0  0  0  0  0  0  0  0  0  0  0
   -1.8309    2.5233    0.0000 H   0  0  0  0  0  0  0  0  0  0  0  0
   -2.6360    1.6789    0.0000 H   0  0  0  0  0  0  0  0  0  0  0  0
   -1.7915    0.8738    0.0000 H   0  0  0  0  0  0  0  0  0  0  0  0
   -0.3082    2.1879    0.0000 H   0  0  0  0  0  0  0  0  0  0  0  0
   -0.9582    2.5428    0.0000 H   0  0  0  0  0  0  0  0  0  0  0  0
   -1.9487    0.0710    0.0000 H   0  0  0  0  0  0  0  0  0  0  0  0
   -1.2587    1.3157    0.0000 H   0  0  0  0  0  0  0  0  0  0  0  0
   -1.7250   -0.9464    0.0000 H   0  0  0  0  0  0  0  0  0  0  0  0
   -1.1769   -1.1780    0.0000 H   0  0  0  0  0  0  0  0  0  0  0  0
   -0.4107   -2.2729    0.0000 H   0  0  0  0  0  0  0  0  0  0  0  0
   -1.8518   -1.4616    0.0000 H   0  0  0  0  0  0  0  0  0  0  0  0
   -1.8150   -2.2606    0.0000 H   0  0  0  0  0  0  0  0  0  0  0  0
   -1.1179   -2.6528    0.0000 H   0  0  0  0  0  0  0  0  0  0  0  0
    0.2925   -2.7036    0.0000 H   0  0  0  0  0  0  0  0  0  0  0  0
    1.0183   -2.3160    0.0000 H   0  0  0  0  0  0  0  0  0  0  0  0
    1.7459   -1.9359    0.0000 H   0  0  0  0  0  0  0  0  0  0  0  0
    1.7837   -1.1152    0.0000 H   0  0  0  0  0  0  0  0  0  0  0  0
    1.2730    0.1550    0.0000 H   0  0  0  0  0  0  0  0  0  0  0  0
    2.5189   -1.0023    0.0000 H   0  0  0  0  0  0  0  0  0  0  0  0
    2.7090   -0.2237    0.0000 H   0  0  0  0  0  0  0  0  0  0  0  0
    1.0237    1.5206    0.0000 H   0  0  0  0  0  0  0  0  0  0  0  0
  1  2  1  0  0  0  0
  1 21  1  0  0  0  0
  1 22  1  0  0  0  0
  1 23  1  0  0  0  0
  3  2  1  1  0  0  0
  2 24  1  0  0  0  0
  2 25  1  0  0  0  0
  3  4  1  0  0  0  0
  3 17  1  0  0  0  0
  3 19  1  0  0  0  0
  4  5  1  0  0  0  0
  4 26  1  0  0  0  0
  4 27  1  0  0  0  0
  6  5  1  0  0  0  0
  5 28  1  0  0  0  0
  5 29  1  0  0  0  0
  6 20  1  1  0  0  0
  6  7  1  0  0  0  0
 18  6  1  0  0  0  0
  7  8  1  0  0  0  0
  7  9  1  0  0  0  0
  7 30  1  1  0  0  0
  8 31  1  0  0  0  0
  8 32  1  0  0  0  0
  8 33  1  0  0  0  0
  9 10  1  0  0  0  0
  9 34  1  0  0  0  0
  9 35  1  0  0  0  0
 11 10  1  0  0  0  0
 10 36  1  0  0  0  0
 10 37  1  0  0  0  0
 11 12  1  0  0  0  0
 18 11  1  0  0  0  0
 11 38  1  1  0  0  0
 12 13  1  0  0  0  0
 12 39  1  0  0  0  0
 12 40  1  0  0  0  0
 13 14  2  0  0  0  0
 13 15  1  0  0  0  0
 16 15  1  0  0  0  0
 16 17  1  0  0  0  0
 18 16  1  0  0  0  0
 16 41  1  6  0  0  0
 18 19  1  1  0  0  0
M  END
