
  Mrv171c004271813302D          

 48 51  0  0  0  0            999 V2000
    2.6983    1.4014    0.0000 C   0  0  0  0  0  0  0  0  0  0  0  0
    2.0279    0.9207    0.0000 C   0  0  0  0  0  0  0  0  0  0  0  0
    2.1090    0.0997    0.0000 C   0  0  0  0  0  0  0  0  0  0  0  0
    1.2763    1.2609    0.0000 C   0  0  0  0  0  0  0  0  0  0  0  0
    0.6059    0.7801    0.0000 C   0  0  1  0  0  0  0  0  0  0  0  0
    1.1097    0.0803    0.0000 C   0  0  0  0  0  0  0  0  0  0  0  0
    0.6256   -0.6235    0.0000 C   0  0  0  0  0  0  0  0  0  0  0  0
   -0.2327   -0.6803    0.0000 C   0  0  1  0  0  0  0  0  0  0  0  0
   -0.3564   -1.5294    0.0000 C   0  0  1  0  0  0  0  0  0  0  0  0
    0.3220   -1.9989    0.0000 C   0  0  0  0  0  0  0  0  0  0  0  0
   -1.0901   -1.9347    0.0000 C   0  0  0  0  0  0  0  0  0  0  0  0
   -1.6405   -1.3177    0.0000 C   0  0  0  0  0  0  0  0  0  0  0  0
   -1.5525   -0.4766    0.0000 C   0  0  1  0  0  0  0  0  0  0  0  0
   -2.3685   -0.2021    0.0000 C   0  0  0  0  0  0  0  0  0  0  0  0
   -2.6802    0.5883    0.0000 C   0  0  0  0  0  0  0  0  0  0  0  0
   -3.4651    0.8425    0.0000 O   0  0  0  0  0  0  0  0  0  0  0  0
   -1.9706    1.0419    0.0000 O   0  0  0  0  0  0  0  0  0  0  0  0
   -1.1422    0.7450    0.0000 C   0  0  2  0  0  0  0  0  0  0  0  0
   -0.2070    0.4949    0.0000 O   0  0  0  0  0  0  0  0  0  0  0  0
   -0.8126    0.0144    0.0000 C   0  0  1  0  0  0  0  0  0  0  0  0
   -0.5638    0.9453    0.0000 O   0  0  0  0  0  0  0  0  0  0  0  0
    0.1061    1.4798    0.0000 O   0  0  0  0  0  0  0  0  0  0  0  0
   -1.0266   -0.9046    0.0000 H   0  0  0  0  0  0  0  0  0  0  0  0
    3.1791    0.7310    0.0000 H   0  0  0  0  0  0  0  0  0  0  0  0
    3.3687    1.8822    0.0000 H   0  0  0  0  0  0  0  0  0  0  0  0
    2.2175    2.0719    0.0000 H   0  0  0  0  0  0  0  0  0  0  0  0
    2.7795    0.5805    0.0000 H   0  0  0  0  0  0  0  0  0  0  0  0
    1.2950    0.2338    0.0000 H   0  0  0  0  0  0  0  0  0  0  0  0
    1.7688   -0.6519    0.0000 H   0  0  0  0  0  0  0  0  0  0  0  0
    2.7470   -0.4235    0.0000 H   0  0  0  0  0  0  0  0  0  0  0  0
    1.5722    2.0310    0.0000 H   0  0  0  0  0  0  0  0  0  0  0  0
    0.8353    1.9581    0.0000 H   0  0  0  0  0  0  0  0  0  0  0  0
    1.3945   -0.6940    0.0000 H   0  0  0  0  0  0  0  0  0  0  0  0
    1.9063   -0.1345    0.0000 H   0  0  0  0  0  0  0  0  0  0  0  0
    0.6151   -1.4484    0.0000 H   0  0  0  0  0  0  0  0  0  0  0  0
    0.2177    0.0936    0.0000 H   0  0  0  0  0  0  0  0  0  0  0  0
    0.4001   -1.2002    0.0000 H   0  0  0  0  0  0  0  0  0  0  0  0
   -0.3581   -2.4659    0.0000 H   0  0  0  0  0  0  0  0  0  0  0  0
    0.5165   -2.8006    0.0000 H   0  0  0  0  0  0  0  0  0  0  0  0
    1.1405   -2.1023    0.0000 H   0  0  0  0  0  0  0  0  0  0  0  0
   -1.8283   -2.3031    0.0000 H   0  0  0  0  0  0  0  0  0  0  0  0
   -1.3824   -2.7062    0.0000 H   0  0  0  0  0  0  0  0  0  0  0  0
   -2.4586   -1.2111    0.0000 H   0  0  0  0  0  0  0  0  0  0  0  0
   -2.2421   -1.8822    0.0000 H   0  0  0  0  0  0  0  0  0  0  0  0
   -1.6600    0.3414    0.0000 H   0  0  0  0  0  0  0  0  0  0  0  0
   -3.1391   -0.4967    0.0000 H   0  0  0  0  0  0  0  0  0  0  0  0
   -2.6233   -0.9867    0.0000 H   0  0  0  0  0  0  0  0  0  0  0  0
   -1.1378    1.5700    0.0000 H   0  0  0  0  0  0  0  0  0  0  0  0
  1  2  1  0  0  0  0
  1 24  1  0  0  0  0
  1 25  1  0  0  0  0
  1 26  1  0  0  0  0
  2  3  1  0  0  0  0
  2  4  1  0  0  0  0
  2 27  1  0  0  0  0
  3 28  1  0  0  0  0
  3 29  1  0  0  0  0
  3 30  1  0  0  0  0
  5  4  1  1  0  0  0
  4 31  1  0  0  0  0
  4 32  1  0  0  0  0
  5  6  1  0  0  0  0
  5 19  1  0  0  0  0
  5 22  1  0  0  0  0
  6  7  1  0  0  0  0
  6 33  1  0  0  0  0
  6 34  1  0  0  0  0
  8  7  1  0  0  0  0
  7 35  1  0  0  0  0
  7 36  1  0  0  0  0
  8 23  1  6  0  0  0
  8  9  1  0  0  0  0
 20  8  1  0  0  0  0
  9 10  1  1  0  0  0
  9 11  1  0  0  0  0
  9 37  1  6  0  0  0
 10 38  1  0  0  0  0
 10 39  1  0  0  0  0
 10 40  1  0  0  0  0
 11 12  1  0  0  0  0
 11 41  1  0  0  0  0
 11 42  1  0  0  0  0
 13 12  1  0  0  0  0
 12 43  1  0  0  0  0
 12 44  1  0  0  0  0
 13 14  1  0  0  0  0
 20 13  1  0  0  0  0
 13 45  1  6  0  0  0
 14 15  1  0  0  0  0
 14 46  1  0  0  0  0
 14 47  1  0  0  0  0
 15 16  2  0  0  0  0
 15 17  1  0  0  0  0
 18 17  1  0  0  0  0
 18 19  1  0  0  0  0
 20 18  1  0  0  0  0
 18 48  1  1  0  0  0
 20 21  1  6  0  0  0
 21 22  1  0  0  0  0
M  END
