
  Mrv171c004271813302D          

 36 39  0  0  0  0            999 V2000
    0.7636   -1.1977    0.0000 C   0  0  0  0  0  0  0  0  0  0  0  0
    0.0752   -0.7431    0.0000 C   0  0  1  0  0  0  0  0  0  0  0  0
   -0.6440   -1.1742    0.0000 C   0  0  0  0  0  0  0  0  0  0  0  0
   -1.2076   -0.5547    0.0000 C   0  0  0  0  0  0  0  0  0  0  0  0
   -1.1114    0.3002    0.0000 C   0  0  1  0  0  0  0  0  0  0  0  0
   -1.9440    0.5329    0.0000 C   0  0  0  0  0  0  0  0  0  0  0  0
   -2.2326    1.3230    0.0000 C   0  0  0  0  0  0  0  0  0  0  0  0
   -3.0151    1.5844    0.0000 O   0  0  0  0  0  0  0  0  0  0  0  0
   -1.5274    1.7806    0.0000 O   0  0  0  0  0  0  0  0  0  0  0  0
   -0.7126    1.5100    0.0000 C   0  0  2  0  0  0  0  0  0  0  0  0
    0.2201    1.2893    0.0000 O   0  0  0  0  0  0  0  0  0  0  0  0
    1.0521    1.5022    0.0000 C   0  0  1  0  0  0  0  0  0  0  0  0
    1.5379    0.8044    0.0000 C   0  0  0  0  0  0  0  0  0  0  0  0
    1.0491    0.1154    0.0000 C   0  0  0  0  0  0  0  0  0  0  0  0
    0.1916    0.1042    0.0000 C   0  0  2  0  0  0  0  0  0  0  0  0
   -0.3691    0.7996    0.0000 C   0  0  1  0  0  0  0  0  0  0  0  0
   -0.1305    1.7505    0.0000 O   0  0  0  0  0  0  0  0  0  0  0  0
    0.5957    2.2108    0.0000 O   0  0  0  0  0  0  0  0  0  0  0  0
    1.7375    1.9613    0.0000 H   0  0  0  0  0  0  0  0  0  0  0  0
   -0.6033   -0.1166    0.0000 H   0  0  0  0  0  0  0  0  0  0  0  0
    0.3090   -1.8861    0.0000 H   0  0  0  0  0  0  0  0  0  0  0  0
    1.4520   -1.6523    0.0000 H   0  0  0  0  0  0  0  0  0  0  0  0
    1.2182   -0.5093    0.0000 H   0  0  0  0  0  0  0  0  0  0  0  0
    0.8267   -0.4027    0.0000 H   0  0  0  0  0  0  0  0  0  0  0  0
   -1.1419   -1.8321    0.0000 H   0  0  0  0  0  0  0  0  0  0  0  0
   -0.3570   -1.9477    0.0000 H   0  0  0  0  0  0  0  0  0  0  0  0
   -2.0255   -0.4474    0.0000 H   0  0  0  0  0  0  0  0  0  0  0  0
   -1.8075   -1.1210    0.0000 H   0  0  0  0  0  0  0  0  0  0  0  0
   -1.2427    1.1147    0.0000 H   0  0  0  0  0  0  0  0  0  0  0  0
   -2.7133    0.2347    0.0000 H   0  0  0  0  0  0  0  0  0  0  0  0
   -2.1817   -0.2572    0.0000 H   0  0  0  0  0  0  0  0  0  0  0  0
   -0.7419    2.3344    0.0000 H   0  0  0  0  0  0  0  0  0  0  0  0
    2.2659    0.4164    0.0000 H   0  0  0  0  0  0  0  0  0  0  0  0
    2.2693    1.1860    0.0000 H   0  0  0  0  0  0  0  0  0  0  0  0
    1.8613   -0.0293    0.0000 H   0  0  0  0  0  0  0  0  0  0  0  0
    0.6656    0.8459    0.0000 H   0  0  0  0  0  0  0  0  0  0  0  0
  2  1  1  1  0  0  0
  1 21  1  0  0  0  0
  1 22  1  0  0  0  0
  1 23  1  0  0  0  0
  2  3  1  0  0  0  0
 15  2  1  0  0  0  0
  2 24  1  6  0  0  0
  3  4  1  0  0  0  0
  3 25  1  0  0  0  0
  3 26  1  0  0  0  0
  5  4  1  0  0  0  0
  4 27  1  0  0  0  0
  4 28  1  0  0  0  0
  5  6  1  0  0  0  0
 16  5  1  0  0  0  0
  5 29  1  6  0  0  0
  6  7  1  0  0  0  0
  6 30  1  0  0  0  0
  6 31  1  0  0  0  0
  7  8  2  0  0  0  0
  7  9  1  0  0  0  0
 10  9  1  0  0  0  0
 10 11  1  0  0  0  0
 16 10  1  0  0  0  0
 10 32  1  1  0  0  0
 12 11  1  0  0  0  0
 12 19  1  1  0  0  0
 12 13  1  0  0  0  0
 12 18  1  0  0  0  0
 13 14  1  0  0  0  0
 13 33  1  0  0  0  0
 13 34  1  0  0  0  0
 15 14  1  0  0  0  0
 14 35  1  0  0  0  0
 14 36  1  0  0  0  0
 15 20  1  6  0  0  0
 16 15  1  0  0  0  0
 16 17  1  6  0  0  0
 17 18  1  0  0  0  0
M  END
