
  Mrv171c004271813302D          

 49 52  0  0  0  0            999 V2000
   -2.0245   -2.4753    0.0000 C   0  0  0  0  0  0  0  0  0  0  0  0
   -2.2688   -1.6873    0.0000 C   0  0  0  0  0  0  0  0  0  0  0  0
   -1.7085   -1.0817    0.0000 C   0  0  0  0  0  0  0  0  0  0  0  0
   -1.9528   -0.2937    0.0000 C   0  0  0  0  0  0  0  0  0  0  0  0
   -1.3925    0.3118    0.0000 C   0  0  1  0  0  0  0  0  0  0  0  0
   -1.6810    1.1020    0.0000 C   0  0  0  0  0  0  0  0  0  0  0  0
   -2.4635    1.3634    0.0000 O   0  0  0  0  0  0  0  0  0  0  0  0
   -0.9759    1.5596    0.0000 O   0  0  0  0  0  0  0  0  0  0  0  0
   -0.1611    1.2890    0.0000 C   0  0  2  0  0  0  0  0  0  0  0  0
    0.7716    1.0683    0.0000 O   0  0  0  0  0  0  0  0  0  0  0  0
    1.6036    1.2812    0.0000 C   0  0  1  0  0  0  0  0  0  0  0  0
    2.2891    1.7403    0.0000 C   0  0  0  0  0  0  0  0  0  0  0  0
    2.0894    0.5834    0.0000 C   0  0  0  0  0  0  0  0  0  0  0  0
    1.6006   -0.1056    0.0000 C   0  0  0  0  0  0  0  0  0  0  0  0
    0.7431   -0.1168    0.0000 C   0  0  1  0  0  0  0  0  0  0  0  0
    0.6267   -0.9641    0.0000 C   0  0  1  0  0  0  0  0  0  0  0  0
    1.3151   -1.4187    0.0000 C   0  0  0  0  0  0  0  0  0  0  0  0
   -0.0925   -1.3952    0.0000 C   0  0  0  0  0  0  0  0  0  0  0  0
   -0.6560   -0.7757    0.0000 C   0  0  0  0  0  0  0  0  0  0  0  0
   -0.5599    0.0792    0.0000 C   0  0  2  0  0  0  0  0  0  0  0  0
    0.1825    0.5786    0.0000 C   0  0  1  0  0  0  0  0  0  0  0  0
    0.4211    1.5295    0.0000 O   0  0  0  0  0  0  0  0  0  0  0  0
    1.1472    1.9898    0.0000 O   0  0  0  0  0  0  0  0  0  0  0  0
   -1.1678   -0.4820    0.0000 H   0  0  0  0  0  0  0  0  0  0  0  0
    1.0942    0.6298    0.0000 H   0  0  0  0  0  0  0  0  0  0  0  0
   -2.5847   -3.0809    0.0000 H   0  0  0  0  0  0  0  0  0  0  0  0
   -1.2199   -2.6577    0.0000 H   0  0  0  0  0  0  0  0  0  0  0  0
   -3.0733   -1.5049    0.0000 H   0  0  0  0  0  0  0  0  0  0  0  0
   -1.0714   -1.6058    0.0000 H   0  0  0  0  0  0  0  0  0  0  0  0
   -0.9076   -0.8837    0.0000 H   0  0  0  0  0  0  0  0  0  0  0  0
   -2.5899    0.2304    0.0000 H   0  0  0  0  0  0  0  0  0  0  0  0
   -2.7537   -0.4918    0.0000 H   0  0  0  0  0  0  0  0  0  0  0  0
   -0.1904    2.1134    0.0000 H   0  0  0  0  0  0  0  0  0  0  0  0
    2.7482    1.0549    0.0000 H   0  0  0  0  0  0  0  0  0  0  0  0
    2.9745    2.1994    0.0000 H   0  0  0  0  0  0  0  0  0  0  0  0
    1.8300    2.4258    0.0000 H   0  0  0  0  0  0  0  0  0  0  0  0
    2.3484   -0.1999    0.0000 H   0  0  0  0  0  0  0  0  0  0  0  0
    2.8738    0.3277    0.0000 H   0  0  0  0  0  0  0  0  0  0  0  0
    1.1647   -0.8060    0.0000 H   0  0  0  0  0  0  0  0  0  0  0  0
    1.9552   -0.8505    0.0000 H   0  0  0  0  0  0  0  0  0  0  0  0
   -0.0617   -0.5094    0.0000 H   0  0  0  0  0  0  0  0  0  0  0  0
    0.6030   -1.8352    0.0000 H   0  0  0  0  0  0  0  0  0  0  0  0
    1.3738   -2.2416    0.0000 H   0  0  0  0  0  0  0  0  0  0  0  0
    2.0792   -1.7299    0.0000 H   0  0  0  0  0  0  0  0  0  0  0  0
   -0.8221   -1.7803    0.0000 H   0  0  0  0  0  0  0  0  0  0  0  0
   -0.1249   -2.2196    0.0000 H   0  0  0  0  0  0  0  0  0  0  0  0
   -1.0288   -0.0398    0.0000 H   0  0  0  0  0  0  0  0  0  0  0  0
    0.1516   -0.9443    0.0000 H   0  0  0  0  0  0  0  0  0  0  0  0
   -0.6912    0.8937    0.0000 H   0  0  0  0  0  0  0  0  0  0  0  0
  1  2  2  0  0  0  0
  1 26  1  0  0  0  0
  1 27  1  0  0  0  0
  2  3  1  0  0  0  0
  2 28  1  0  0  0  0
  3  4  1  0  0  0  0
  3 29  1  0  0  0  0
  3 30  1  0  0  0  0
  5  4  1  1  0  0  0
  4 31  1  0  0  0  0
  4 32  1  0  0  0  0
  5 24  1  6  0  0  0
  5  6  1  0  0  0  0
 20  5  1  0  0  0  0
  6  7  2  0  0  0  0
  6  8  1  0  0  0  0
  9  8  1  0  0  0  0
  9 10  1  0  0  0  0
 21  9  1  0  0  0  0
  9 33  1  1  0  0  0
 11 10  1  0  0  0  0
 11 12  1  1  0  0  0
 11 13  1  0  0  0  0
 11 23  1  0  0  0  0
 12 34  1  0  0  0  0
 12 35  1  0  0  0  0
 12 36  1  0  0  0  0
 13 14  1  0  0  0  0
 13 37  1  0  0  0  0
 13 38  1  0  0  0  0
 15 14  1  0  0  0  0
 14 39  1  0  0  0  0
 14 40  1  0  0  0  0
 15 25  1  6  0  0  0
 15 16  1  0  0  0  0
 21 15  1  0  0  0  0
 16 17  1  0  0  0  0
 16 18  1  1  0  0  0
 16 41  1  6  0  0  0
 17 42  1  0  0  0  0
 17 43  1  0  0  0  0
 17 44  1  0  0  0  0
 18 19  1  0  0  0  0
 18 45  1  0  0  0  0
 18 46  1  0  0  0  0
 20 19  1  0  0  0  0
 19 47  1  0  0  0  0
 19 48  1  0  0  0  0
 21 20  1  0  0  0  0
 20 49  1  6  0  0  0
 21 22  1  6  0  0  0
 22 23  1  0  0  0  0
M  END
