
  Mrv171c004271813302D          

 46 49  0  0  0  0            999 V2000
   -1.9832   -1.0044    0.0000 C   0  0  0  0  0  0  0  0  0  0  0  0
   -2.2275   -0.2164    0.0000 O   0  0  0  0  0  0  0  0  0  0  0  0
   -1.6673    0.3891    0.0000 C   0  0  1  0  0  0  0  0  0  0  0  0
   -1.9558    1.1793    0.0000 C   0  0  1  0  0  0  0  0  0  0  0  0
   -2.7383    1.4407    0.0000 O   0  0  0  0  0  0  0  0  0  0  0  0
   -2.9031    2.2491    0.0000 O   0  0  0  0  0  0  0  0  0  0  0  0
   -1.2507    1.6369    0.0000 O   0  0  0  0  0  0  0  0  0  0  0  0
   -0.4358    1.3663    0.0000 C   0  0  2  0  0  0  0  0  0  0  0  0
    0.4968    1.1456    0.0000 O   0  0  0  0  0  0  0  0  0  0  0  0
    1.3289    1.3585    0.0000 C   0  0  1  0  0  0  0  0  0  0  0  0
    2.0143    1.8176    0.0000 C   0  0  0  0  0  0  0  0  0  0  0  0
    1.8146    0.6607    0.0000 C   0  0  0  0  0  0  0  0  0  0  0  0
    1.3258   -0.0283    0.0000 C   0  0  0  0  0  0  0  0  0  0  0  0
    0.4684   -0.0395    0.0000 C   0  0  1  0  0  0  0  0  0  0  0  0
    0.3520   -0.8868    0.0000 C   0  0  1  0  0  0  0  0  0  0  0  0
    1.0404   -1.3414    0.0000 C   0  0  0  0  0  0  0  0  0  0  0  0
   -0.3672   -1.3179    0.0000 C   0  0  0  0  0  0  0  0  0  0  0  0
   -0.9308   -0.6984    0.0000 C   0  0  0  0  0  0  0  0  0  0  0  0
   -0.8346    0.1565    0.0000 C   0  0  2  0  0  0  0  0  0  0  0  0
   -0.0923    0.6559    0.0000 C   0  0  1  0  0  0  0  0  0  0  0  0
    0.1463    1.6068    0.0000 O   0  0  0  0  0  0  0  0  0  0  0  0
    0.8725    2.0671    0.0000 O   0  0  0  0  0  0  0  0  0  0  0  0
    0.8195    0.7071    0.0000 H   0  0  0  0  0  0  0  0  0  0  0  0
   -2.7712   -1.2487    0.0000 H   0  0  0  0  0  0  0  0  0  0  0  0
   -1.7389   -1.7924    0.0000 H   0  0  0  0  0  0  0  0  0  0  0  0
   -1.1952   -0.7601    0.0000 H   0  0  0  0  0  0  0  0  0  0  0  0
   -1.4425   -0.4047    0.0000 H   0  0  0  0  0  0  0  0  0  0  0  0
   -2.5310    0.5879    0.0000 H   0  0  0  0  0  0  0  0  0  0  0  0
   -2.2854    2.7960    0.0000 H   0  0  0  0  0  0  0  0  0  0  0  0
   -0.4652    2.1907    0.0000 H   0  0  0  0  0  0  0  0  0  0  0  0
    2.4734    1.1322    0.0000 H   0  0  0  0  0  0  0  0  0  0  0  0
    2.6998    2.2767    0.0000 H   0  0  0  0  0  0  0  0  0  0  0  0
    1.5552    2.5031    0.0000 H   0  0  0  0  0  0  0  0  0  0  0  0
    2.0736   -0.1226    0.0000 H   0  0  0  0  0  0  0  0  0  0  0  0
    2.5990    0.4050    0.0000 H   0  0  0  0  0  0  0  0  0  0  0  0
    0.8899   -0.7287    0.0000 H   0  0  0  0  0  0  0  0  0  0  0  0
    1.6805   -0.7732    0.0000 H   0  0  0  0  0  0  0  0  0  0  0  0
   -0.3365   -0.4321    0.0000 H   0  0  0  0  0  0  0  0  0  0  0  0
    0.3282   -1.7579    0.0000 H   0  0  0  0  0  0  0  0  0  0  0  0
    1.0991   -2.1643    0.0000 H   0  0  0  0  0  0  0  0  0  0  0  0
    1.8044   -1.6526    0.0000 H   0  0  0  0  0  0  0  0  0  0  0  0
   -1.0938   -1.7088    0.0000 H   0  0  0  0  0  0  0  0  0  0  0  0
   -0.6263   -2.1012    0.0000 H   0  0  0  0  0  0  0  0  0  0  0  0
   -1.4290   -1.3560    0.0000 H   0  0  0  0  0  0  0  0  0  0  0  0
   -0.8938   -1.5226    0.0000 H   0  0  0  0  0  0  0  0  0  0  0  0
   -0.9660    0.9710    0.0000 H   0  0  0  0  0  0  0  0  0  0  0  0
  1  2  1  0  0  0  0
  1 24  1  0  0  0  0
  1 25  1  0  0  0  0
  1 26  1  0  0  0  0
  3  2  1  1  0  0  0
  3  4  1  0  0  0  0
 19  3  1  0  0  0  0
  3 27  1  6  0  0  0
  4  5  1  1  0  0  0
  4  7  1  0  0  0  0
  4 28  1  6  0  0  0
  5  6  1  0  0  0  0
  6 29  1  0  0  0  0
  8  7  1  0  0  0  0
  8  9  1  0  0  0  0
 20  8  1  0  0  0  0
  8 30  1  1  0  0  0
 10  9  1  0  0  0  0
 10 11  1  1  0  0  0
 10 12  1  0  0  0  0
 10 22  1  0  0  0  0
 11 31  1  0  0  0  0
 11 32  1  0  0  0  0
 11 33  1  0  0  0  0
 12 13  1  0  0  0  0
 12 34  1  0  0  0  0
 12 35  1  0  0  0  0
 14 13  1  0  0  0  0
 13 36  1  0  0  0  0
 13 37  1  0  0  0  0
 14 23  1  6  0  0  0
 14 15  1  0  0  0  0
 20 14  1  0  0  0  0
 15 16  1  0  0  0  0
 15 17  1  1  0  0  0
 15 38  1  6  0  0  0
 16 39  1  0  0  0  0
 16 40  1  0  0  0  0
 16 41  1  0  0  0  0
 17 18  1  0  0  0  0
 17 42  1  0  0  0  0
 17 43  1  0  0  0  0
 19 18  1  0  0  0  0
 18 44  1  0  0  0  0
 18 45  1  0  0  0  0
 20 19  1  0  0  0  0
 19 46  1  6  0  0  0
 20 21  1  6  0  0  0
 21 22  1  0  0  0  0
M  END
