
  Mrv171c004271813302D          

 51 55  0  0  0  0            999 V2000
    0.9754   -2.6567    0.0000 C   0  0  0  0  0  0  0  0  0  0  0  0
    0.2422   -2.2786    0.0000 C   0  0  1  0  0  0  0  0  0  0  0  0
   -0.4572   -2.6936    0.0000 C   0  0  0  0  0  0  0  0  0  0  0  0
   -1.1970   -2.3241    0.0000 C   0  0  0  0  0  0  0  0  0  0  0  0
   -1.2424   -1.4929    0.0000 C   0  0  1  0  0  0  0  0  0  0  0  0
   -2.0494   -1.3022    0.0000 C   0  0  0  0  0  0  0  0  0  0  0  0
   -2.2815   -0.5097    0.0000 C   0  0  0  0  0  0  0  0  0  0  0  0
   -3.0873   -0.3327    0.0000 O   0  0  0  0  0  0  0  0  0  0  0  0
   -1.7438    0.1065    0.0000 O   0  0  0  0  0  0  0  0  0  0  0  0
   -0.9469   -0.0997    0.0000 C   0  0  2  0  0  0  0  0  0  0  0  0
   -0.3600    0.5510    0.0000 O   0  0  0  0  0  0  0  0  0  0  0  0
    0.3916    0.1545    0.0000 C   0  0  1  0  0  0  0  0  0  0  0  0
    0.8300    0.8533    0.0000 C   0  0  0  0  0  0  0  0  0  0  0  0
    0.4439    1.5824    0.0000 C   0  0  0  0  0  0  0  0  0  0  0  0
    0.8823    2.2813    0.0000 C   0  0  0  0  0  0  0  0  0  0  0  0
    0.4963    3.0104    0.0000 C   0  0  0  0  0  0  0  0  0  0  0  0
    0.9347    3.7093    0.0000 C   0  0  0  0  0  0  0  0  0  0  0  0
    1.7591    3.6791    0.0000 C   0  0  0  0  0  0  0  0  0  0  0  0
    2.1452    2.9500    0.0000 C   0  0  0  0  0  0  0  0  0  0  0  0
    1.7068    2.2511    0.0000 C   0  0  0  0  0  0  0  0  0  0  0  0
    1.0803   -0.3530    0.0000 C   0  0  0  0  0  0  0  0  0  0  0  0
    1.0042   -1.1925    0.0000 C   0  0  0  0  0  0  0  0  0  0  0  0
    0.1737   -1.4560    0.0000 C   0  0  2  0  0  0  0  0  0  0  0  0
   -0.5884   -0.9415    0.0000 C   0  0  1  0  0  0  0  0  0  0  0  0
   -0.0910   -0.4510    0.0000 O   0  0  0  0  0  0  0  0  0  0  0  0
   -0.5381   -1.8731    0.0000 H   0  0  0  0  0  0  0  0  0  0  0  0
    0.5973   -3.3900    0.0000 H   0  0  0  0  0  0  0  0  0  0  0  0
    1.7087   -3.0349    0.0000 H   0  0  0  0  0  0  0  0  0  0  0  0
    1.3535   -1.9235    0.0000 H   0  0  0  0  0  0  0  0  0  0  0  0
    0.9282   -1.8204    0.0000 H   0  0  0  0  0  0  0  0  0  0  0  0
   -0.7965   -3.4456    0.0000 H   0  0  0  0  0  0  0  0  0  0  0  0
   -0.0644   -3.4191    0.0000 H   0  0  0  0  0  0  0  0  0  0  0  0
   -2.0165   -2.4188    0.0000 H   0  0  0  0  0  0  0  0  0  0  0  0
   -1.6095   -3.0386    0.0000 H   0  0  0  0  0  0  0  0  0  0  0  0
   -1.4339   -0.6904    0.0000 H   0  0  0  0  0  0  0  0  0  0  0  0
   -2.8256   -1.5818    0.0000 H   0  0  0  0  0  0  0  0  0  0  0  0
   -2.2875   -2.0921    0.0000 H   0  0  0  0  0  0  0  0  0  0  0  0
   -1.1843    0.6904    0.0000 H   0  0  0  0  0  0  0  0  0  0  0  0
    1.5532    0.4563    0.0000 H   0  0  0  0  0  0  0  0  0  0  0  0
    1.5803    1.1963    0.0000 H   0  0  0  0  0  0  0  0  0  0  0  0
   -0.2793    1.9795    0.0000 H   0  0  0  0  0  0  0  0  0  0  0  0
   -0.3064    1.2394    0.0000 H   0  0  0  0  0  0  0  0  0  0  0  0
   -0.3282    3.0406    0.0000 H   0  0  0  0  0  0  0  0  0  0  0  0
    0.5486    4.4384    0.0000 H   0  0  0  0  0  0  0  0  0  0  0  0
    2.1975    4.3779    0.0000 H   0  0  0  0  0  0  0  0  0  0  0  0
    2.9696    2.9197    0.0000 H   0  0  0  0  0  0  0  0  0  0  0  0
    2.0928    1.5220    0.0000 H   0  0  0  0  0  0  0  0  0  0  0  0
    1.8661   -0.6044    0.0000 H   0  0  0  0  0  0  0  0  0  0  0  0
    0.3279   -0.6914    0.0000 H   0  0  0  0  0  0  0  0  0  0  0  0
    1.8022   -1.4018    0.0000 H   0  0  0  0  0  0  0  0  0  0  0  0
    1.6795   -0.7186    0.0000 H   0  0  0  0  0  0  0  0  0  0  0  0
  2  1  1  0  0  0  0
  1 27  1  0  0  0  0
  1 28  1  0  0  0  0
  1 29  1  0  0  0  0
  2  3  1  0  0  0  0
 23  2  1  0  0  0  0
  2 30  1  6  0  0  0
  3  4  1  0  0  0  0
  3 31  1  0  0  0  0
  3 32  1  0  0  0  0
  5  4  1  0  0  0  0
  4 33  1  0  0  0  0
  4 34  1  0  0  0  0
  5  6  1  0  0  0  0
 24  5  1  0  0  0  0
  5 35  1  6  0  0  0
  6  7  1  0  0  0  0
  6 36  1  0  0  0  0
  6 37  1  0  0  0  0
  7  8  2  0  0  0  0
  7  9  1  0  0  0  0
 10  9  1  0  0  0  0
 10 11  1  0  0  0  0
 24 10  1  0  0  0  0
 10 38  1  1  0  0  0
 12 11  1  0  0  0  0
 12 13  1  6  0  0  0
 12 21  1  0  0  0  0
 12 25  1  0  0  0  0
 13 14  1  0  0  0  0
 13 39  1  0  0  0  0
 13 40  1  0  0  0  0
 14 15  1  0  0  0  0
 14 41  1  0  0  0  0
 14 42  1  0  0  0  0
 15 16  1  0  0  0  0
 15 20  2  0  0  0  0
 16 17  2  0  0  0  0
 16 43  1  0  0  0  0
 17 18  1  0  0  0  0
 17 44  1  0  0  0  0
 18 19  2  0  0  0  0
 18 45  1  0  0  0  0
 19 20  1  0  0  0  0
 19 46  1  0  0  0  0
 20 47  1  0  0  0  0
 21 22  1  0  0  0  0
 21 48  1  0  0  0  0
 21 49  1  0  0  0  0
 23 22  1  0  0  0  0
 22 50  1  0  0  0  0
 22 51  1  0  0  0  0
 23 26  1  6  0  0  0
 24 23  1  0  0  0  0
 24 25  1  6  0  0  0
M  END
