
  Mrv171c004271813302D          

 60 63  0  0  0  0            999 V2000
   -2.3104   -2.7534    0.0000 C   0  0  0  0  0  0  0  0  0  0  0  0
   -2.5547   -1.9654    0.0000 C   0  0  0  0  0  0  0  0  0  0  0  0
   -1.9944   -1.3598    0.0000 C   0  0  0  0  0  0  0  0  0  0  0  0
   -2.2387   -0.5718    0.0000 C   0  0  0  0  0  0  0  0  0  0  0  0
   -1.6785    0.0338    0.0000 C   0  0  1  0  0  0  0  0  0  0  0  0
   -1.9670    0.8239    0.0000 C   0  0  0  0  0  0  0  0  0  0  0  0
   -2.7495    1.0853    0.0000 O   0  0  0  0  0  0  0  0  0  0  0  0
   -1.2619    1.2815    0.0000 O   0  0  0  0  0  0  0  0  0  0  0  0
   -0.4470    1.0109    0.0000 C   0  0  2  0  0  0  0  0  0  0  0  0
    0.4856    0.7902    0.0000 O   0  0  0  0  0  0  0  0  0  0  0  0
    1.3177    1.0031    0.0000 C   0  0  1  0  0  0  0  0  0  0  0  0
    2.0031    1.4622    0.0000 C   0  0  0  0  0  0  0  0  0  0  0  0
    1.9482    2.2854    0.0000 C   0  0  0  0  0  0  0  0  0  0  0  0
    2.6337    2.7445    0.0000 C   0  0  0  0  0  0  0  0  0  0  0  0
    2.5788    3.5677    0.0000 C   0  0  0  0  0  0  0  0  0  0  0  0
    1.8034    0.3053    0.0000 C   0  0  0  0  0  0  0  0  0  0  0  0
    1.3146   -0.3837    0.0000 C   0  0  0  0  0  0  0  0  0  0  0  0
    0.4572   -0.3949    0.0000 C   0  0  1  0  0  0  0  0  0  0  0  0
    0.3408   -1.2422    0.0000 C   0  0  1  0  0  0  0  0  0  0  0  0
    1.0292   -1.6968    0.0000 C   0  0  0  0  0  0  0  0  0  0  0  0
   -0.3784   -1.6733    0.0000 C   0  0  0  0  0  0  0  0  0  0  0  0
   -0.9420   -1.0538    0.0000 C   0  0  0  0  0  0  0  0  0  0  0  0
   -0.8458   -0.1989    0.0000 C   0  0  2  0  0  0  0  0  0  0  0  0
   -0.1035    0.3005    0.0000 C   0  0  1  0  0  0  0  0  0  0  0  0
    0.1351    1.2514    0.0000 O   0  0  0  0  0  0  0  0  0  0  0  0
    0.8613    1.7117    0.0000 O   0  0  0  0  0  0  0  0  0  0  0  0
   -1.4537   -0.7601    0.0000 H   0  0  0  0  0  0  0  0  0  0  0  0
    0.8083    0.3517    0.0000 H   0  0  0  0  0  0  0  0  0  0  0  0
   -3.0984   -2.9977    0.0000 H   0  0  0  0  0  0  0  0  0  0  0  0
   -2.0661   -3.5414    0.0000 H   0  0  0  0  0  0  0  0  0  0  0  0
   -1.5224   -2.5091    0.0000 H   0  0  0  0  0  0  0  0  0  0  0  0
   -3.1918   -1.4413    0.0000 H   0  0  0  0  0  0  0  0  0  0  0  0
   -3.3556   -2.1634    0.0000 H   0  0  0  0  0  0  0  0  0  0  0  0
   -1.3573   -1.8839    0.0000 H   0  0  0  0  0  0  0  0  0  0  0  0
   -1.1936   -1.1617    0.0000 H   0  0  0  0  0  0  0  0  0  0  0  0
   -2.8759   -0.0477    0.0000 H   0  0  0  0  0  0  0  0  0  0  0  0
   -3.0396   -0.7699    0.0000 H   0  0  0  0  0  0  0  0  0  0  0  0
   -0.4764    1.8354    0.0000 H   0  0  0  0  0  0  0  0  0  0  0  0
    2.5013    0.8046    0.0000 H   0  0  0  0  0  0  0  0  0  0  0  0
    2.8281    1.4692    0.0000 H   0  0  0  0  0  0  0  0  0  0  0  0
    1.4501    2.9430    0.0000 H   0  0  0  0  0  0  0  0  0  0  0  0
    1.1233    2.2785    0.0000 H   0  0  0  0  0  0  0  0  0  0  0  0
    3.1319    2.0869    0.0000 H   0  0  0  0  0  0  0  0  0  0  0  0
    3.4587    2.7514    0.0000 H   0  0  0  0  0  0  0  0  0  0  0  0
    3.4020    3.6226    0.0000 H   0  0  0  0  0  0  0  0  0  0  0  0
    2.5239    4.3909    0.0000 H   0  0  0  0  0  0  0  0  0  0  0  0
    1.7556    3.5128    0.0000 H   0  0  0  0  0  0  0  0  0  0  0  0
    2.0624   -0.4780    0.0000 H   0  0  0  0  0  0  0  0  0  0  0  0
    2.5878    0.0495    0.0000 H   0  0  0  0  0  0  0  0  0  0  0  0
    0.8787   -1.0841    0.0000 H   0  0  0  0  0  0  0  0  0  0  0  0
    1.6693   -1.1286    0.0000 H   0  0  0  0  0  0  0  0  0  0  0  0
   -0.3477   -0.7875    0.0000 H   0  0  0  0  0  0  0  0  0  0  0  0
    0.3170   -2.1133    0.0000 H   0  0  0  0  0  0  0  0  0  0  0  0
    1.0879   -2.5197    0.0000 H   0  0  0  0  0  0  0  0  0  0  0  0
    1.7932   -2.0080    0.0000 H   0  0  0  0  0  0  0  0  0  0  0  0
   -1.1081   -2.0584    0.0000 H   0  0  0  0  0  0  0  0  0  0  0  0
   -0.4108   -2.4977    0.0000 H   0  0  0  0  0  0  0  0  0  0  0  0
   -1.3148   -0.3179    0.0000 H   0  0  0  0  0  0  0  0  0  0  0  0
   -0.1344   -1.2223    0.0000 H   0  0  0  0  0  0  0  0  0  0  0  0
   -0.9772    0.6156    0.0000 H   0  0  0  0  0  0  0  0  0  0  0  0
  1  2  1  0  0  0  0
  1 29  1  0  0  0  0
  1 30  1  0  0  0  0
  1 31  1  0  0  0  0
  2  3  1  0  0  0  0
  2 32  1  0  0  0  0
  2 33  1  0  0  0  0
  3  4  1  0  0  0  0
  3 34  1  0  0  0  0
  3 35  1  0  0  0  0
  5  4  1  1  0  0  0
  4 36  1  0  0  0  0
  4 37  1  0  0  0  0
  5 27  1  6  0  0  0
  5  6  1  0  0  0  0
 23  5  1  0  0  0  0
  6  7  2  0  0  0  0
  6  8  1  0  0  0  0
  9  8  1  0  0  0  0
  9 10  1  0  0  0  0
 24  9  1  0  0  0  0
  9 38  1  1  0  0  0
 11 10  1  0  0  0  0
 11 12  1  1  0  0  0
 11 16  1  0  0  0  0
 11 26  1  0  0  0  0
 12 13  1  0  0  0  0
 12 39  1  0  0  0  0
 12 40  1  0  0  0  0
 13 14  1  0  0  0  0
 13 41  1  0  0  0  0
 13 42  1  0  0  0  0
 14 15  1  0  0  0  0
 14 43  1  0  0  0  0
 14 44  1  0  0  0  0
 15 45  1  0  0  0  0
 15 46  1  0  0  0  0
 15 47  1  0  0  0  0
 16 17  1  0  0  0  0
 16 48  1  0  0  0  0
 16 49  1  0  0  0  0
 18 17  1  0  0  0  0
 17 50  1  0  0  0  0
 17 51  1  0  0  0  0
 18 28  1  6  0  0  0
 18 19  1  0  0  0  0
 24 18  1  0  0  0  0
 19 20  1  0  0  0  0
 19 21  1  1  0  0  0
 19 52  1  6  0  0  0
 20 53  1  0  0  0  0
 20 54  1  0  0  0  0
 20 55  1  0  0  0  0
 21 22  1  0  0  0  0
 21 56  1  0  0  0  0
 21 57  1  0  0  0  0
 23 22  1  0  0  0  0
 22 58  1  0  0  0  0
 22 59  1  0  0  0  0
 24 23  1  0  0  0  0
 23 60  1  6  0  0  0
 24 25  1  6  0  0  0
 25 26  1  0  0  0  0
M  END
