
  Mrv171c004271813302D          

 50 53  0  0  0  0            999 V2000
   -3.5396    0.8320    0.0000 C   0  0  0  0  0  0  0  0  0  0  0  0
   -2.7571    0.5706    0.0000 C   0  0  0  0  0  0  0  0  0  0  0  0
   -2.1395    1.1175    0.0000 O   0  0  0  0  0  0  0  0  0  0  0  0
   -1.3570    0.8560    0.0000 C   0  0  1  0  0  0  0  0  0  0  0  0
   -0.6519    1.3137    0.0000 O   0  0  0  0  0  0  0  0  0  0  0  0
    0.1630    1.0430    0.0000 C   0  0  2  0  0  0  0  0  0  0  0  0
    1.0957    0.8223    0.0000 O   0  0  0  0  0  0  0  0  0  0  0  0
    1.9277    1.0353    0.0000 C   0  0  1  0  0  0  0  0  0  0  0  0
    2.6131    1.4944    0.0000 C   0  0  0  0  0  0  0  0  0  0  0  0
    2.4134    0.3375    0.0000 C   0  0  0  0  0  0  0  0  0  0  0  0
    1.9246   -0.3515    0.0000 C   0  0  0  0  0  0  0  0  0  0  0  0
    1.0672   -0.3627    0.0000 C   0  0  1  0  0  0  0  0  0  0  0  0
    0.9508   -1.2100    0.0000 C   0  0  1  0  0  0  0  0  0  0  0  0
    1.6392   -1.6646    0.0000 C   0  0  0  0  0  0  0  0  0  0  0  0
    0.2316   -1.6412    0.0000 C   0  0  0  0  0  0  0  0  0  0  0  0
   -0.3320   -1.0217    0.0000 C   0  0  0  0  0  0  0  0  0  0  0  0
   -0.2358   -0.1668    0.0000 C   0  0  1  0  0  0  0  0  0  0  0  0
   -1.0684    0.0659    0.0000 C   0  0  1  0  0  0  0  0  0  0  0  0
   -1.6287   -0.5397    0.0000 C   0  0  0  0  0  0  0  0  0  0  0  0
    0.5065    0.3327    0.0000 C   0  0  1  0  0  0  0  0  0  0  0  0
    0.7451    1.2835    0.0000 O   0  0  0  0  0  0  0  0  0  0  0  0
    1.4713    1.7439    0.0000 O   0  0  0  0  0  0  0  0  0  0  0  0
    1.4183    0.3838    0.0000 H   0  0  0  0  0  0  0  0  0  0  0  0
   -0.8437   -0.7279    0.0000 H   0  0  0  0  0  0  0  0  0  0  0  0
   -3.2781    1.6145    0.0000 H   0  0  0  0  0  0  0  0  0  0  0  0
   -4.3221    1.0935    0.0000 H   0  0  0  0  0  0  0  0  0  0  0  0
   -3.8011    0.0496    0.0000 H   0  0  0  0  0  0  0  0  0  0  0  0
   -2.9727   -0.2258    0.0000 H   0  0  0  0  0  0  0  0  0  0  0  0
   -2.2471   -0.0778    0.0000 H   0  0  0  0  0  0  0  0  0  0  0  0
   -1.9322    0.2646    0.0000 H   0  0  0  0  0  0  0  0  0  0  0  0
    0.1337    1.8675    0.0000 H   0  0  0  0  0  0  0  0  0  0  0  0
    3.0722    0.8089    0.0000 H   0  0  0  0  0  0  0  0  0  0  0  0
    3.2986    1.9535    0.0000 H   0  0  0  0  0  0  0  0  0  0  0  0
    2.1540    2.1798    0.0000 H   0  0  0  0  0  0  0  0  0  0  0  0
    2.6724   -0.4458    0.0000 H   0  0  0  0  0  0  0  0  0  0  0  0
    3.1978    0.0818    0.0000 H   0  0  0  0  0  0  0  0  0  0  0  0
    1.4887   -1.0520    0.0000 H   0  0  0  0  0  0  0  0  0  0  0  0
    2.2793   -1.0964    0.0000 H   0  0  0  0  0  0  0  0  0  0  0  0
    0.2623   -0.7554    0.0000 H   0  0  0  0  0  0  0  0  0  0  0  0
    0.9270   -2.0811    0.0000 H   0  0  0  0  0  0  0  0  0  0  0  0
    1.6979   -2.4875    0.0000 H   0  0  0  0  0  0  0  0  0  0  0  0
    2.4032   -1.9759    0.0000 H   0  0  0  0  0  0  0  0  0  0  0  0
   -0.4950   -2.0320    0.0000 H   0  0  0  0  0  0  0  0  0  0  0  0
   -0.0275   -2.4245    0.0000 H   0  0  0  0  0  0  0  0  0  0  0  0
   -1.1500   -0.9143    0.0000 H   0  0  0  0  0  0  0  0  0  0  0  0
   -0.9319   -1.5880    0.0000 H   0  0  0  0  0  0  0  0  0  0  0  0
   -0.3672    0.6477    0.0000 H   0  0  0  0  0  0  0  0  0  0  0  0
   -2.4459   -0.6534    0.0000 H   0  0  0  0  0  0  0  0  0  0  0  0
   -2.1298   -1.1950    0.0000 H   0  0  0  0  0  0  0  0  0  0  0  0
   -1.5242   -1.3580    0.0000 H   0  0  0  0  0  0  0  0  0  0  0  0
  1  2  1  0  0  0  0
  1 25  1  0  0  0  0
  1 26  1  0  0  0  0
  1 27  1  0  0  0  0
  2  3  1  0  0  0  0
  2 28  1  0  0  0  0
  2 29  1  0  0  0  0
  4  3  1  1  0  0  0
  4  5  1  0  0  0  0
 18  4  1  0  0  0  0
  4 30  1  6  0  0  0
  6  5  1  0  0  0  0
  6  7  1  0  0  0  0
 20  6  1  0  0  0  0
  6 31  1  1  0  0  0
  8  7  1  0  0  0  0
  8  9  1  1  0  0  0
  8 10  1  0  0  0  0
  8 22  1  0  0  0  0
  9 32  1  0  0  0  0
  9 33  1  0  0  0  0
  9 34  1  0  0  0  0
 10 11  1  0  0  0  0
 10 35  1  0  0  0  0
 10 36  1  0  0  0  0
 12 11  1  0  0  0  0
 11 37  1  0  0  0  0
 11 38  1  0  0  0  0
 12 23  1  6  0  0  0
 12 13  1  0  0  0  0
 20 12  1  0  0  0  0
 13 14  1  0  0  0  0
 13 15  1  1  0  0  0
 13 39  1  6  0  0  0
 14 40  1  0  0  0  0
 14 41  1  0  0  0  0
 14 42  1  0  0  0  0
 15 16  1  0  0  0  0
 15 43  1  0  0  0  0
 15 44  1  0  0  0  0
 17 16  1  0  0  0  0
 16 45  1  0  0  0  0
 16 46  1  0  0  0  0
 17 18  1  0  0  0  0
 20 17  1  0  0  0  0
 17 47  1  6  0  0  0
 18 24  1  6  0  0  0
 18 19  1  1  0  0  0
 19 48  1  0  0  0  0
 19 49  1  0  0  0  0
 19 50  1  0  0  0  0
 20 21  1  6  0  0  0
 21 22  1  0  0  0  0
M  END
