
  Mrv171c004271813302D          

 60 64  0  0  0  0            999 V2000
    2.3899   -0.1816    0.0000 C   0  0  0  0  0  0  0  0  0  0  0  0
    1.6567    0.1966    0.0000 C   0  0  1  0  0  0  0  0  0  0  0  0
    0.9573   -0.2184    0.0000 C   0  0  0  0  0  0  0  0  0  0  0  0
    0.2175    0.1511    0.0000 C   0  0  0  0  0  0  0  0  0  0  0  0
    0.1721    0.9823    0.0000 C   0  0  1  0  0  0  0  0  0  0  0  0
   -0.6349    1.1729    0.0000 C   0  0  1  0  0  0  0  0  0  0  0  0
   -1.2026    0.5743    0.0000 C   0  0  0  0  0  0  0  0  0  0  0  0
   -0.9681   -0.2166    0.0000 C   0  0  0  0  0  0  0  0  0  0  0  0
   -1.5358   -0.8152    0.0000 C   0  0  0  0  0  0  0  0  0  0  0  0
   -1.3013   -1.6062    0.0000 C   0  0  0  0  0  0  0  0  0  0  0  0
   -1.8691   -2.2047    0.0000 C   0  0  0  0  0  0  0  0  0  0  0  0
   -1.6345   -2.9957    0.0000 C   0  0  0  0  0  0  0  0  0  0  0  0
   -2.2023   -3.5943    0.0000 C   0  0  0  0  0  0  0  0  0  0  0  0
   -3.0045   -3.4019    0.0000 C   0  0  0  0  0  0  0  0  0  0  0  0
   -3.2390   -2.6109    0.0000 C   0  0  0  0  0  0  0  0  0  0  0  0
   -2.6713   -2.0124    0.0000 C   0  0  0  0  0  0  0  0  0  0  0  0
   -0.8670    1.9655    0.0000 C   0  0  0  0  0  0  0  0  0  0  0  0
   -1.6728    2.1425    0.0000 O   0  0  0  0  0  0  0  0  0  0  0  0
   -0.3293    2.5817    0.0000 O   0  0  0  0  0  0  0  0  0  0  0  0
    0.4676    2.3755    0.0000 C   0  0  2  0  0  0  0  0  0  0  0  0
    1.0545    3.0262    0.0000 O   0  0  0  0  0  0  0  0  0  0  0  0
    1.8061    2.6296    0.0000 C   0  0  1  0  0  0  0  0  0  0  0  0
    2.2445    3.3285    0.0000 C   0  0  0  0  0  0  0  0  0  0  0  0
    2.4948    2.1221    0.0000 C   0  0  0  0  0  0  0  0  0  0  0  0
    2.4187    1.2827    0.0000 C   0  0  0  0  0  0  0  0  0  0  0  0
    1.5882    1.0192    0.0000 C   0  0  2  0  0  0  0  0  0  0  0  0
    0.8261    1.5337    0.0000 C   0  0  1  0  0  0  0  0  0  0  0  0
    1.3235    2.0242    0.0000 O   0  0  0  0  0  0  0  0  0  0  0  0
   -0.3990    0.3824    0.0000 H   0  0  0  0  0  0  0  0  0  0  0  0
    0.8764    0.6021    0.0000 H   0  0  0  0  0  0  0  0  0  0  0  0
    2.0118   -0.9148    0.0000 H   0  0  0  0  0  0  0  0  0  0  0  0
    3.1232   -0.5597    0.0000 H   0  0  0  0  0  0  0  0  0  0  0  0
    2.7681    0.5517    0.0000 H   0  0  0  0  0  0  0  0  0  0  0  0
    2.3427    0.6548    0.0000 H   0  0  0  0  0  0  0  0  0  0  0  0
    0.6180   -0.9704    0.0000 H   0  0  0  0  0  0  0  0  0  0  0  0
    1.3501   -0.9439    0.0000 H   0  0  0  0  0  0  0  0  0  0  0  0
   -0.6020    0.0563    0.0000 H   0  0  0  0  0  0  0  0  0  0  0  0
   -0.1950   -0.5634    0.0000 H   0  0  0  0  0  0  0  0  0  0  0  0
   -0.0194    1.7847    0.0000 H   0  0  0  0  0  0  0  0  0  0  0  0
   -1.8332    1.1063    0.0000 H   0  0  0  0  0  0  0  0  0  0  0  0
   -2.0059    0.3862    0.0000 H   0  0  0  0  0  0  0  0  0  0  0  0
   -1.7704   -0.0242    0.0000 H   0  0  0  0  0  0  0  0  0  0  0  0
   -0.8082   -1.0260    0.0000 H   0  0  0  0  0  0  0  0  0  0  0  0
   -2.3593   -0.7650    0.0000 H   0  0  0  0  0  0  0  0  0  0  0  0
   -2.1989   -1.3061    0.0000 H   0  0  0  0  0  0  0  0  0  0  0  0
   -0.9175   -2.3364    0.0000 H   0  0  0  0  0  0  0  0  0  0  0  0
   -0.5341   -1.9096    0.0000 H   0  0  0  0  0  0  0  0  0  0  0  0
   -0.8323   -3.1881    0.0000 H   0  0  0  0  0  0  0  0  0  0  0  0
   -1.9677   -4.3853    0.0000 H   0  0  0  0  0  0  0  0  0  0  0  0
   -3.5723   -4.0005    0.0000 H   0  0  0  0  0  0  0  0  0  0  0  0
   -4.0413   -2.4186    0.0000 H   0  0  0  0  0  0  0  0  0  0  0  0
   -3.3158   -1.4973    0.0000 H   0  0  0  0  0  0  0  0  0  0  0  0
    0.2303    3.1656    0.0000 H   0  0  0  0  0  0  0  0  0  0  0  0
    2.9434    2.8901    0.0000 H   0  0  0  0  0  0  0  0  0  0  0  0
    2.6829    4.0274    0.0000 H   0  0  0  0  0  0  0  0  0  0  0  0
    1.5456    3.7669    0.0000 H   0  0  0  0  0  0  0  0  0  0  0  0
    3.2806    1.8708    0.0000 H   0  0  0  0  0  0  0  0  0  0  0  0
    1.7424    1.7837    0.0000 H   0  0  0  0  0  0  0  0  0  0  0  0
    3.2167    1.0734    0.0000 H   0  0  0  0  0  0  0  0  0  0  0  0
    3.0940    1.7566    0.0000 H   0  0  0  0  0  0  0  0  0  0  0  0
  2  1  1  0  0  0  0
  1 31  1  0  0  0  0
  1 32  1  0  0  0  0
  1 33  1  0  0  0  0
  2  3  1  0  0  0  0
 26  2  1  0  0  0  0
  2 34  1  6  0  0  0
  3  4  1  0  0  0  0
  3 35  1  0  0  0  0
  3 36  1  0  0  0  0
  5  4  1  0  0  0  0
  4 37  1  0  0  0  0
  4 38  1  0  0  0  0
  5  6  1  0  0  0  0
 27  5  1  0  0  0  0
  5 39  1  6  0  0  0
  6 29  1  6  0  0  0
  6  7  1  0  0  0  0
  6 17  1  0  0  0  0
  7  8  1  0  0  0  0
  7 40  1  0  0  0  0
  7 41  1  0  0  0  0
  8  9  1  0  0  0  0
  8 42  1  0  0  0  0
  8 43  1  0  0  0  0
  9 10  1  0  0  0  0
  9 44  1  0  0  0  0
  9 45  1  0  0  0  0
 10 11  1  0  0  0  0
 10 46  1  0  0  0  0
 10 47  1  0  0  0  0
 11 12  1  0  0  0  0
 11 16  2  0  0  0  0
 12 13  2  0  0  0  0
 12 48  1  0  0  0  0
 13 14  1  0  0  0  0
 13 49  1  0  0  0  0
 14 15  2  0  0  0  0
 14 50  1  0  0  0  0
 15 16  1  0  0  0  0
 15 51  1  0  0  0  0
 16 52  1  0  0  0  0
 17 18  2  0  0  0  0
 17 19  1  0  0  0  0
 20 19  1  0  0  0  0
 20 21  1  0  0  0  0
 27 20  1  0  0  0  0
 20 53  1  1  0  0  0
 22 21  1  0  0  0  0
 22 23  1  6  0  0  0
 22 24  1  0  0  0  0
 22 28  1  0  0  0  0
 23 54  1  0  0  0  0
 23 55  1  0  0  0  0
 23 56  1  0  0  0  0
 24 25  1  0  0  0  0
 24 57  1  0  0  0  0
 24 58  1  0  0  0  0
 26 25  1  0  0  0  0
 25 59  1  0  0  0  0
 25 60  1  0  0  0  0
 26 30  1  6  0  0  0
 27 26  1  0  0  0  0
 27 28  1  6  0  0  0
M  END
