
  Mrv171c004271813302D          

 52 55  0  0  0  0            999 V2000
    1.5682   -1.5213    0.0000 C   0  0  0  0  0  0  0  0  0  0  0  0
    0.8798   -1.0667    0.0000 C   0  0  1  0  0  0  0  0  0  0  0  0
    0.1606   -1.4979    0.0000 C   0  0  0  0  0  0  0  0  0  0  0  0
   -0.4030   -0.8784    0.0000 C   0  0  0  0  0  0  0  0  0  0  0  0
   -0.3068   -0.0235    0.0000 C   0  0  1  0  0  0  0  0  0  0  0  0
   -1.1394    0.2092    0.0000 C   0  0  1  0  0  0  0  0  0  0  0  0
   -1.6997   -0.3964    0.0000 C   0  0  0  0  0  0  0  0  0  0  0  0
   -1.4280    0.9993    0.0000 C   0  0  1  0  0  0  0  0  0  0  0  0
   -2.2105    1.2608    0.0000 C   0  0  0  0  0  0  0  0  0  0  0  0
   -2.8281    0.7139    0.0000 C   0  0  0  0  0  0  0  0  0  0  0  0
   -3.4458    0.1670    0.0000 C   0  0  0  0  0  0  0  0  0  0  0  0
   -3.3750    1.3315    0.0000 F   0  0  0  0  0  0  0  0  0  0  0  0
   -2.2812    0.0962    0.0000 F   0  0  0  0  0  0  0  0  0  0  0  0
   -0.7228    1.4569    0.0000 O   0  0  0  0  0  0  0  0  0  0  0  0
    0.0920    1.1863    0.0000 C   0  0  2  0  0  0  0  0  0  0  0  0
    1.0247    0.9656    0.0000 O   0  0  0  0  0  0  0  0  0  0  0  0
    1.8567    1.1786    0.0000 C   0  0  1  0  0  0  0  0  0  0  0  0
    2.5421    1.6377    0.0000 C   0  0  0  0  0  0  0  0  0  0  0  0
    2.3425    0.4808    0.0000 C   0  0  0  0  0  0  0  0  0  0  0  0
    1.8536   -0.2082    0.0000 C   0  0  0  0  0  0  0  0  0  0  0  0
    0.9962   -0.2194    0.0000 C   0  0  2  0  0  0  0  0  0  0  0  0
    0.4355    0.4760    0.0000 C   0  0  1  0  0  0  0  0  0  0  0  0
    0.6741    1.4268    0.0000 O   0  0  0  0  0  0  0  0  0  0  0  0
    1.4003    1.8872    0.0000 O   0  0  0  0  0  0  0  0  0  0  0  0
   -0.9147   -0.5846    0.0000 H   0  0  0  0  0  0  0  0  0  0  0  0
    0.2013   -0.4403    0.0000 H   0  0  0  0  0  0  0  0  0  0  0  0
    1.1136   -2.2098    0.0000 H   0  0  0  0  0  0  0  0  0  0  0  0
    2.2566   -1.9760    0.0000 H   0  0  0  0  0  0  0  0  0  0  0  0
    2.0228   -0.8329    0.0000 H   0  0  0  0  0  0  0  0  0  0  0  0
    1.6313   -0.7263    0.0000 H   0  0  0  0  0  0  0  0  0  0  0  0
   -0.3373   -2.1557    0.0000 H   0  0  0  0  0  0  0  0  0  0  0  0
    0.4476   -2.2714    0.0000 H   0  0  0  0  0  0  0  0  0  0  0  0
   -1.2209   -0.7711    0.0000 H   0  0  0  0  0  0  0  0  0  0  0  0
   -1.0029   -1.4447    0.0000 H   0  0  0  0  0  0  0  0  0  0  0  0
   -0.4382    0.7910    0.0000 H   0  0  0  0  0  0  0  0  0  0  0  0
   -2.5212   -0.4724    0.0000 H   0  0  0  0  0  0  0  0  0  0  0  0
   -2.2207   -1.0361    0.0000 H   0  0  0  0  0  0  0  0  0  0  0  0
   -1.6078   -1.2162    0.0000 H   0  0  0  0  0  0  0  0  0  0  0  0
   -1.5321    1.8177    0.0000 H   0  0  0  0  0  0  0  0  0  0  0  0
   -2.4956    2.0349    0.0000 H   0  0  0  0  0  0  0  0  0  0  0  0
   -2.9299    1.6646    0.0000 H   0  0  0  0  0  0  0  0  0  0  0  0
   -3.9927    0.7846    0.0000 H   0  0  0  0  0  0  0  0  0  0  0  0
   -4.0635   -0.3799    0.0000 H   0  0  0  0  0  0  0  0  0  0  0  0
   -2.8989   -0.4507    0.0000 H   0  0  0  0  0  0  0  0  0  0  0  0
    0.0627    2.0108    0.0000 H   0  0  0  0  0  0  0  0  0  0  0  0
    3.0012    0.9522    0.0000 H   0  0  0  0  0  0  0  0  0  0  0  0
    3.2276    2.0968    0.0000 H   0  0  0  0  0  0  0  0  0  0  0  0
    2.0830    2.3231    0.0000 H   0  0  0  0  0  0  0  0  0  0  0  0
    2.6014   -0.3025    0.0000 H   0  0  0  0  0  0  0  0  0  0  0  0
    3.1268    0.2250    0.0000 H   0  0  0  0  0  0  0  0  0  0  0  0
    1.7577    0.6112    0.0000 H   0  0  0  0  0  0  0  0  0  0  0  0
    1.2337    0.3361    0.0000 H   0  0  0  0  0  0  0  0  0  0  0  0
  2  1  1  1  0  0  0
  1 27  1  0  0  0  0
  1 28  1  0  0  0  0
  1 29  1  0  0  0  0
  2  3  1  0  0  0  0
 21  2  1  0  0  0  0
  2 30  1  6  0  0  0
  3  4  1  0  0  0  0
  3 31  1  0  0  0  0
  3 32  1  0  0  0  0
  5  4  1  0  0  0  0
  4 33  1  0  0  0  0
  4 34  1  0  0  0  0
  5  6  1  0  0  0  0
 22  5  1  0  0  0  0
  5 35  1  6  0  0  0
  6 25  1  6  0  0  0
  6  7  1  1  0  0  0
  6  8  1  0  0  0  0
  7 36  1  0  0  0  0
  7 37  1  0  0  0  0
  7 38  1  0  0  0  0
  8  9  1  1  0  0  0
  8 14  1  0  0  0  0
  8 39  1  6  0  0  0
  9 10  1  0  0  0  0
  9 40  1  0  0  0  0
  9 41  1  0  0  0  0
 10 11  1  0  0  0  0
 10 12  1  0  0  0  0
 10 13  1  0  0  0  0
 11 42  1  0  0  0  0
 11 43  1  0  0  0  0
 11 44  1  0  0  0  0
 15 14  1  0  0  0  0
 15 16  1  0  0  0  0
 22 15  1  0  0  0  0
 15 45  1  1  0  0  0
 17 16  1  0  0  0  0
 17 18  1  1  0  0  0
 17 19  1  0  0  0  0
 17 24  1  0  0  0  0
 18 46  1  0  0  0  0
 18 47  1  0  0  0  0
 18 48  1  0  0  0  0
 19 20  1  0  0  0  0
 19 49  1  0  0  0  0
 19 50  1  0  0  0  0
 21 20  1  0  0  0  0
 20 51  1  0  0  0  0
 20 52  1  0  0  0  0
 21 26  1  6  0  0  0
 22 21  1  0  0  0  0
 22 23  1  6  0  0  0
 23 24  1  0  0  0  0
M  END
