
  Mrv171c004271813302D          

 59 63  0  0  0  0            999 V2000
   -2.9111   -1.0781    0.0000 C   0  0  0  0  0  0  0  0  0  0  0  0
   -3.1996   -0.2880    0.0000 C   0  0  0  0  0  0  0  0  0  0  0  0
   -2.4945    0.1696    0.0000 O   0  0  0  0  0  0  0  0  0  0  0  0
   -1.6797   -0.1010    0.0000 C   0  0  2  0  0  0  0  0  0  0  0  0
   -0.7470   -0.3217    0.0000 O   0  0  0  0  0  0  0  0  0  0  0  0
    0.0851   -0.1087    0.0000 C   0  0  1  0  0  0  0  0  0  0  0  0
    0.7705    0.3504    0.0000 C   0  0  0  0  0  0  0  0  0  0  0  0
    0.7156    1.1735    0.0000 C   0  0  0  0  0  0  0  0  0  0  0  0
    1.4011    1.6327    0.0000 C   0  0  0  0  0  0  0  0  0  0  0  0
    1.3462    2.4558    0.0000 C   0  0  0  0  0  0  0  0  0  0  0  0
    2.0316    2.9149    0.0000 C   0  0  0  0  0  0  0  0  0  0  0  0
    1.9768    3.7381    0.0000 C   0  0  0  0  0  0  0  0  0  0  0  0
    2.6622    4.1972    0.0000 C   0  0  0  0  0  0  0  0  0  0  0  0
    3.4025    3.8332    0.0000 C   0  0  0  0  0  0  0  0  0  0  0  0
    3.4574    3.0100    0.0000 C   0  0  0  0  0  0  0  0  0  0  0  0
    2.7720    2.5509    0.0000 C   0  0  0  0  0  0  0  0  0  0  0  0
    0.5708   -0.8065    0.0000 C   0  0  0  0  0  0  0  0  0  0  0  0
    0.0820   -1.4955    0.0000 C   0  0  0  0  0  0  0  0  0  0  0  0
   -0.7754   -1.5067    0.0000 C   0  0  1  0  0  0  0  0  0  0  0  0
   -0.8919   -2.3540    0.0000 C   0  0  1  0  0  0  0  0  0  0  0  0
   -0.2034   -2.8086    0.0000 C   0  0  0  0  0  0  0  0  0  0  0  0
   -1.6111   -2.7852    0.0000 C   0  0  0  0  0  0  0  0  0  0  0  0
   -2.1746   -2.1657    0.0000 C   0  0  0  0  0  0  0  0  0  0  0  0
   -2.0784   -1.3108    0.0000 C   0  0  2  0  0  0  0  0  0  0  0  0
   -1.3361   -0.8113    0.0000 C   0  0  1  0  0  0  0  0  0  0  0  0
   -1.0975    0.1395    0.0000 O   0  0  0  0  0  0  0  0  0  0  0  0
   -0.3713    0.5999    0.0000 O   0  0  0  0  0  0  0  0  0  0  0  0
   -3.6803   -1.3763    0.0000 H   0  0  0  0  0  0  0  0  0  0  0  0
   -3.1487   -1.8681    0.0000 H   0  0  0  0  0  0  0  0  0  0  0  0
   -0.4243   -0.7602    0.0000 H   0  0  0  0  0  0  0  0  0  0  0  0
   -3.7618    0.3158    0.0000 H   0  0  0  0  0  0  0  0  0  0  0  0
   -4.0119   -0.4325    0.0000 H   0  0  0  0  0  0  0  0  0  0  0  0
   -1.7090    0.7235    0.0000 H   0  0  0  0  0  0  0  0  0  0  0  0
    1.2687   -0.3072    0.0000 H   0  0  0  0  0  0  0  0  0  0  0  0
    1.5955    0.3573    0.0000 H   0  0  0  0  0  0  0  0  0  0  0  0
    0.2174    1.8311    0.0000 H   0  0  0  0  0  0  0  0  0  0  0  0
   -0.1093    1.1666    0.0000 H   0  0  0  0  0  0  0  0  0  0  0  0
    1.8993    0.9751    0.0000 H   0  0  0  0  0  0  0  0  0  0  0  0
    2.2260    1.6396    0.0000 H   0  0  0  0  0  0  0  0  0  0  0  0
    0.8480    3.1134    0.0000 H   0  0  0  0  0  0  0  0  0  0  0  0
    0.5212    2.4489    0.0000 H   0  0  0  0  0  0  0  0  0  0  0  0
    1.2364    4.1022    0.0000 H   0  0  0  0  0  0  0  0  0  0  0  0
    2.6073    5.0204    0.0000 H   0  0  0  0  0  0  0  0  0  0  0  0
    4.0880    4.2923    0.0000 H   0  0  0  0  0  0  0  0  0  0  0  0
    4.1977    2.6459    0.0000 H   0  0  0  0  0  0  0  0  0  0  0  0
    2.8269    1.7277    0.0000 H   0  0  0  0  0  0  0  0  0  0  0  0
    0.8298   -1.5898    0.0000 H   0  0  0  0  0  0  0  0  0  0  0  0
    1.3552   -1.0623    0.0000 H   0  0  0  0  0  0  0  0  0  0  0  0
   -0.3539   -2.1960    0.0000 H   0  0  0  0  0  0  0  0  0  0  0  0
    0.4366   -2.2404    0.0000 H   0  0  0  0  0  0  0  0  0  0  0  0
   -1.5803   -1.8994    0.0000 H   0  0  0  0  0  0  0  0  0  0  0  0
   -0.9156   -3.2251    0.0000 H   0  0  0  0  0  0  0  0  0  0  0  0
   -0.1448   -3.6316    0.0000 H   0  0  0  0  0  0  0  0  0  0  0  0
    0.5606   -3.1199    0.0000 H   0  0  0  0  0  0  0  0  0  0  0  0
   -2.3376   -3.1760    0.0000 H   0  0  0  0  0  0  0  0  0  0  0  0
   -1.8701   -3.5685    0.0000 H   0  0  0  0  0  0  0  0  0  0  0  0
   -2.9926   -2.0584    0.0000 H   0  0  0  0  0  0  0  0  0  0  0  0
   -2.7745   -2.7320    0.0000 H   0  0  0  0  0  0  0  0  0  0  0  0
   -2.2098   -0.4963    0.0000 H   0  0  0  0  0  0  0  0  0  0  0  0
  1 28  1  0  0  0  0
  1 29  1  0  0  0  0
  1  2  1  0  0  0  0
 24  1  1  0  0  0  0
  2  3  1  0  0  0  0
  2 31  1  0  0  0  0
  2 32  1  0  0  0  0
  4  3  1  0  0  0  0
  4  5  1  0  0  0  0
 25  4  1  0  0  0  0
  4 33  1  1  0  0  0
  6  5  1  0  0  0  0
  6  7  1  1  0  0  0
  6 17  1  0  0  0  0
  6 27  1  0  0  0  0
  7  8  1  0  0  0  0
  7 34  1  0  0  0  0
  7 35  1  0  0  0  0
  8  9  1  0  0  0  0
  8 36  1  0  0  0  0
  8 37  1  0  0  0  0
  9 10  1  0  0  0  0
  9 38  1  0  0  0  0
  9 39  1  0  0  0  0
 10 11  1  0  0  0  0
 10 40  1  0  0  0  0
 10 41  1  0  0  0  0
 11 12  1  0  0  0  0
 11 16  2  0  0  0  0
 12 13  2  0  0  0  0
 12 42  1  0  0  0  0
 13 14  1  0  0  0  0
 13 43  1  0  0  0  0
 14 15  2  0  0  0  0
 14 44  1  0  0  0  0
 15 16  1  0  0  0  0
 15 45  1  0  0  0  0
 16 46  1  0  0  0  0
 17 18  1  0  0  0  0
 17 47  1  0  0  0  0
 17 48  1  0  0  0  0
 19 18  1  0  0  0  0
 18 49  1  0  0  0  0
 18 50  1  0  0  0  0
 19 30  1  6  0  0  0
 19 20  1  0  0  0  0
 25 19  1  0  0  0  0
 20 21  1  0  0  0  0
 20 22  1  1  0  0  0
 20 51  1  6  0  0  0
 21 52  1  0  0  0  0
 21 53  1  0  0  0  0
 21 54  1  0  0  0  0
 22 23  1  0  0  0  0
 22 55  1  0  0  0  0
 22 56  1  0  0  0  0
 24 23  1  0  0  0  0
 23 57  1  0  0  0  0
 23 58  1  0  0  0  0
 25 24  1  0  0  0  0
 24 59  1  6  0  0  0
 25 26  1  6  0  0  0
 26 27  1  0  0  0  0
M  END
