
  Mrv171c004271813302D          

 54 58  0  0  0  0            999 V2000
    2.0925   -0.6216    0.0000 C   0  0  0  0  0  0  0  0  0  0  0  0
    1.3593   -0.2435    0.0000 C   0  0  1  0  0  0  0  0  0  0  0  0
    0.6599   -0.6584    0.0000 C   0  0  0  0  0  0  0  0  0  0  0  0
   -0.0799   -0.2890    0.0000 C   0  0  0  0  0  0  0  0  0  0  0  0
   -0.1253    0.5422    0.0000 C   0  0  1  0  0  0  0  0  0  0  0  0
   -0.9323    0.7329    0.0000 C   0  0  1  0  0  0  0  0  0  0  0  0
   -1.5000    0.1343    0.0000 C   0  0  0  0  0  0  0  0  0  0  0  0
   -1.2655   -0.6566    0.0000 C   0  0  0  0  0  0  0  0  0  0  0  0
   -1.8333   -1.2552    0.0000 C   0  0  0  0  0  0  0  0  0  0  0  0
   -1.5987   -2.0462    0.0000 C   0  0  0  0  0  0  0  0  0  0  0  0
   -2.1665   -2.6448    0.0000 C   0  0  0  0  0  0  0  0  0  0  0  0
   -2.9687   -2.4524    0.0000 C   0  0  0  0  0  0  0  0  0  0  0  0
   -3.2032   -1.6614    0.0000 C   0  0  0  0  0  0  0  0  0  0  0  0
   -2.6355   -1.0628    0.0000 C   0  0  0  0  0  0  0  0  0  0  0  0
   -1.1644    1.5254    0.0000 C   0  0  0  0  0  0  0  0  0  0  0  0
   -1.9702    1.7025    0.0000 O   0  0  0  0  0  0  0  0  0  0  0  0
   -0.6267    2.1417    0.0000 O   0  0  0  0  0  0  0  0  0  0  0  0
    0.1702    1.9355    0.0000 C   0  0  2  0  0  0  0  0  0  0  0  0
    0.7571    2.5861    0.0000 O   0  0  0  0  0  0  0  0  0  0  0  0
    1.5087    2.1896    0.0000 C   0  0  1  0  0  0  0  0  0  0  0  0
    1.9471    2.8885    0.0000 C   0  0  0  0  0  0  0  0  0  0  0  0
    2.1974    1.6821    0.0000 C   0  0  0  0  0  0  0  0  0  0  0  0
    2.1213    0.8427    0.0000 C   0  0  0  0  0  0  0  0  0  0  0  0
    1.2908    0.5791    0.0000 C   0  0  2  0  0  0  0  0  0  0  0  0
    0.5287    1.0937    0.0000 C   0  0  1  0  0  0  0  0  0  0  0  0
    1.0261    1.5842    0.0000 O   0  0  0  0  0  0  0  0  0  0  0  0
   -0.6965   -0.0577    0.0000 H   0  0  0  0  0  0  0  0  0  0  0  0
    0.5790    0.1621    0.0000 H   0  0  0  0  0  0  0  0  0  0  0  0
    1.7144   -1.3548    0.0000 H   0  0  0  0  0  0  0  0  0  0  0  0
    2.8258   -0.9997    0.0000 H   0  0  0  0  0  0  0  0  0  0  0  0
    2.4706    0.1116    0.0000 H   0  0  0  0  0  0  0  0  0  0  0  0
    2.0453    0.2147    0.0000 H   0  0  0  0  0  0  0  0  0  0  0  0
    0.3206   -1.4104    0.0000 H   0  0  0  0  0  0  0  0  0  0  0  0
    1.0527   -1.3839    0.0000 H   0  0  0  0  0  0  0  0  0  0  0  0
   -0.8994   -0.3837    0.0000 H   0  0  0  0  0  0  0  0  0  0  0  0
   -0.4924   -1.0034    0.0000 H   0  0  0  0  0  0  0  0  0  0  0  0
   -0.3168    1.3447    0.0000 H   0  0  0  0  0  0  0  0  0  0  0  0
   -2.1306    0.6663    0.0000 H   0  0  0  0  0  0  0  0  0  0  0  0
   -2.3033   -0.0538    0.0000 H   0  0  0  0  0  0  0  0  0  0  0  0
   -2.0678   -0.4643    0.0000 H   0  0  0  0  0  0  0  0  0  0  0  0
   -1.1056   -1.4660    0.0000 H   0  0  0  0  0  0  0  0  0  0  0  0
   -0.9849   -2.5974    0.0000 H   0  0  0  0  0  0  0  0  0  0  0  0
   -1.9319   -3.4357    0.0000 H   0  0  0  0  0  0  0  0  0  0  0  0
   -3.5365   -3.0510    0.0000 H   0  0  0  0  0  0  0  0  0  0  0  0
   -4.0055   -1.4690    0.0000 H   0  0  0  0  0  0  0  0  0  0  0  0
   -3.2341   -0.4951    0.0000 H   0  0  0  0  0  0  0  0  0  0  0  0
   -0.0672    2.7256    0.0000 H   0  0  0  0  0  0  0  0  0  0  0  0
    2.6459    2.4501    0.0000 H   0  0  0  0  0  0  0  0  0  0  0  0
    2.3855    3.5874    0.0000 H   0  0  0  0  0  0  0  0  0  0  0  0
    1.2482    3.3269    0.0000 H   0  0  0  0  0  0  0  0  0  0  0  0
    2.9832    1.4308    0.0000 H   0  0  0  0  0  0  0  0  0  0  0  0
    1.4450    1.3437    0.0000 H   0  0  0  0  0  0  0  0  0  0  0  0
    2.9193    0.6333    0.0000 H   0  0  0  0  0  0  0  0  0  0  0  0
    2.7966    1.3166    0.0000 H   0  0  0  0  0  0  0  0  0  0  0  0
  2  1  1  0  0  0  0
  1 29  1  0  0  0  0
  1 30  1  0  0  0  0
  1 31  1  0  0  0  0
  2  3  1  0  0  0  0
 24  2  1  0  0  0  0
  2 32  1  6  0  0  0
  3  4  1  0  0  0  0
  3 33  1  0  0  0  0
  3 34  1  0  0  0  0
  5  4  1  0  0  0  0
  4 35  1  0  0  0  0
  4 36  1  0  0  0  0
  5  6  1  0  0  0  0
 25  5  1  0  0  0  0
  5 37  1  6  0  0  0
  6 27  1  6  0  0  0
  6  7  1  0  0  0  0
  6 15  1  0  0  0  0
  7  8  1  0  0  0  0
  7 38  1  0  0  0  0
  7 39  1  0  0  0  0
  8  9  1  0  0  0  0
  8 40  1  0  0  0  0
  8 41  1  0  0  0  0
  9 10  1  0  0  0  0
  9 14  2  0  0  0  0
 10 11  2  0  0  0  0
 10 42  1  0  0  0  0
 11 12  1  0  0  0  0
 11 43  1  0  0  0  0
 12 13  2  0  0  0  0
 12 44  1  0  0  0  0
 13 14  1  0  0  0  0
 13 45  1  0  0  0  0
 14 46  1  0  0  0  0
 15 16  2  0  0  0  0
 15 17  1  0  0  0  0
 18 17  1  0  0  0  0
 18 19  1  0  0  0  0
 25 18  1  0  0  0  0
 18 47  1  1  0  0  0
 20 19  1  0  0  0  0
 20 21  1  6  0  0  0
 20 22  1  0  0  0  0
 20 26  1  0  0  0  0
 21 48  1  0  0  0  0
 21 49  1  0  0  0  0
 21 50  1  0  0  0  0
 22 23  1  0  0  0  0
 22 51  1  0  0  0  0
 22 52  1  0  0  0  0
 24 23  1  0  0  0  0
 23 53  1  0  0  0  0
 23 54  1  0  0  0  0
 24 28  1  6  0  0  0
 25 24  1  0  0  0  0
 25 26  1  6  0  0  0
M  END
