
  Mrv171c004271813302D          

 48 51  0  0  0  0            999 V2000
   -1.9828    2.3379    0.0000 C   0  0  0  0  0  0  0  0  0  0  0  0
   -1.5534    1.6335    0.0000 C   0  0  0  0  0  0  0  0  0  0  0  0
   -1.9487    0.9094    0.0000 C   0  0  0  0  0  0  0  0  0  0  0  0
   -0.7286    1.6532    0.0000 C   0  0  0  0  0  0  0  0  0  0  0  0
   -0.2992    0.9488    0.0000 C   0  0  1  0  0  0  0  0  0  0  0  0
   -0.9808    0.4259    0.0000 C   0  0  0  0  0  0  0  0  0  0  0  0
   -0.8936   -0.4185    0.0000 C   0  0  0  0  0  0  0  0  0  0  0  0
   -0.0700   -0.6826    0.0000 C   0  0  1  0  0  0  0  0  0  0  0  0
   -0.1221   -1.5135    0.0000 C   0  0  1  0  0  0  0  0  0  0  0  0
   -0.8547   -1.8929    0.0000 C   0  0  0  0  0  0  0  0  0  0  0  0
    0.5763   -1.9441    0.0000 C   0  0  0  0  0  0  0  0  0  0  0  0
    1.3079   -1.5577    0.0000 C   0  0  0  0  0  0  0  0  0  0  0  0
    1.3528   -0.7157    0.0000 C   0  0  1  0  0  0  0  0  0  0  0  0
    2.1713   -0.5070    0.0000 C   0  0  0  0  0  0  0  0  0  0  0  0
    2.4071    0.2876    0.0000 C   0  0  0  0  0  0  0  0  0  0  0  0
    1.8442    0.8862    0.0000 O   0  0  0  0  0  0  0  0  0  0  0  0
    1.0470    0.6646    0.0000 C   0  0  2  0  0  0  0  0  0  0  0  0
    0.4743    1.3134    0.0000 O   0  0  0  0  0  0  0  0  0  0  0  0
    0.6813   -0.1674    0.0000 C   0  0  1  0  0  0  0  0  0  0  0  0
    0.1605    0.3421    0.0000 O   0  0  0  0  0  0  0  0  0  0  0  0
    0.6475   -1.0898    0.0000 H   0  0  0  0  0  0  0  0  0  0  0  0
   -1.2784    2.7674    0.0000 H   0  0  0  0  0  0  0  0  0  0  0  0
   -2.4123    3.0424    0.0000 H   0  0  0  0  0  0  0  0  0  0  0  0
   -2.6873    1.9085    0.0000 H   0  0  0  0  0  0  0  0  0  0  0  0
   -2.3782    1.6138    0.0000 H   0  0  0  0  0  0  0  0  0  0  0  0
   -2.7403    0.6769    0.0000 H   0  0  0  0  0  0  0  0  0  0  0  0
   -1.9290    0.0847    0.0000 H   0  0  0  0  0  0  0  0  0  0  0  0
   -1.1470    0.7150    0.0000 H   0  0  0  0  0  0  0  0  0  0  0  0
   -0.0504    2.1229    0.0000 H   0  0  0  0  0  0  0  0  0  0  0  0
   -0.7003    2.4777    0.0000 H   0  0  0  0  0  0  0  0  0  0  0  0
   -1.7658    0.1724    0.0000 H   0  0  0  0  0  0  0  0  0  0  0  0
   -0.2231    0.0995    0.0000 H   0  0  0  0  0  0  0  0  0  0  0  0
   -1.7015   -0.5856    0.0000 H   0  0  0  0  0  0  0  0  0  0  0  0
   -1.2236   -1.1746    0.0000 H   0  0  0  0  0  0  0  0  0  0  0  0
   -0.8132   -1.0629    0.0000 H   0  0  0  0  0  0  0  0  0  0  0  0
   -1.6769   -1.9609    0.0000 H   0  0  0  0  0  0  0  0  0  0  0  0
   -1.1058   -2.6787    0.0000 H   0  0  0  0  0  0  0  0  0  0  0  0
   -0.2243   -2.4251    0.0000 H   0  0  0  0  0  0  0  0  0  0  0  0
    0.5755   -2.7691    0.0000 H   0  0  0  0  0  0  0  0  0  0  0  0
    1.2827   -2.3703    0.0000 H   0  0  0  0  0  0  0  0  0  0  0  0
    2.0060   -1.9974    0.0000 H   0  0  0  0  0  0  0  0  0  0  0  0
    2.0405   -1.1784    0.0000 H   0  0  0  0  0  0  0  0  0  0  0  0
    1.5308    0.0899    0.0000 H   0  0  0  0  0  0  0  0  0  0  0  0
    2.7760   -1.0681    0.0000 H   0  0  0  0  0  0  0  0  0  0  0  0
    2.9670   -0.2892    0.0000 H   0  0  0  0  0  0  0  0  0  0  0  0
    3.2082    0.4850    0.0000 H   0  0  0  0  0  0  0  0  0  0  0  0
    2.6409    1.0788    0.0000 H   0  0  0  0  0  0  0  0  0  0  0  0
    1.2815    1.4556    0.0000 H   0  0  0  0  0  0  0  0  0  0  0  0
  1  2  1  0  0  0  0
  1 22  1  0  0  0  0
  1 23  1  0  0  0  0
  1 24  1  0  0  0  0
  2  3  1  0  0  0  0
  2  4  1  0  0  0  0
  2 25  1  0  0  0  0
  3 26  1  0  0  0  0
  3 27  1  0  0  0  0
  3 28  1  0  0  0  0
  5  4  1  1  0  0  0
  4 29  1  0  0  0  0
  4 30  1  0  0  0  0
  5  6  1  0  0  0  0
  5 18  1  0  0  0  0
  5 20  1  0  0  0  0
  6  7  1  0  0  0  0
  6 31  1  0  0  0  0
  6 32  1  0  0  0  0
  8  7  1  0  0  0  0
  7 33  1  0  0  0  0
  7 34  1  0  0  0  0
  8 21  1  1  0  0  0
  8  9  1  0  0  0  0
 19  8  1  0  0  0  0
  9 10  1  0  0  0  0
  9 11  1  0  0  0  0
  9 35  1  1  0  0  0
 10 36  1  0  0  0  0
 10 37  1  0  0  0  0
 10 38  1  0  0  0  0
 11 12  1  0  0  0  0
 11 39  1  0  0  0  0
 11 40  1  0  0  0  0
 13 12  1  0  0  0  0
 12 41  1  0  0  0  0
 12 42  1  0  0  0  0
 13 14  1  0  0  0  0
 19 13  1  0  0  0  0
 13 43  1  1  0  0  0
 14 15  1  0  0  0  0
 14 44  1  0  0  0  0
 14 45  1  0  0  0  0
 15 16  1  0  0  0  0
 15 46  1  0  0  0  0
 15 47  1  0  0  0  0
 17 16  1  0  0  0  0
 17 18  1  0  0  0  0
 19 17  1  0  0  0  0
 17 48  1  6  0  0  0
 19 20  1  1  0  0  0
M  END
