
  Mrv171c004271813302D          

 42 45  0  0  0  0            999 V2000
    2.2746    0.9669    0.0000 C   0  0  0  0  0  0  0  0  0  0  0  0
    1.5230    1.3071    0.0000 C   0  0  0  0  0  0  0  0  0  0  0  0
    0.8526    0.8263    0.0000 C   0  0  1  0  0  0  0  0  0  0  0  0
    1.3564    0.1265    0.0000 C   0  0  0  0  0  0  0  0  0  0  0  0
    0.8723   -0.5773    0.0000 C   0  0  0  0  0  0  0  0  0  0  0  0
    0.0140   -0.6340    0.0000 C   0  0  1  0  0  0  0  0  0  0  0  0
   -0.1097   -1.4832    0.0000 C   0  0  1  0  0  0  0  0  0  0  0  0
    0.5687   -1.9526    0.0000 C   0  0  0  0  0  0  0  0  0  0  0  0
   -0.8434   -1.8885    0.0000 C   0  0  0  0  0  0  0  0  0  0  0  0
   -1.3938   -1.2715    0.0000 C   0  0  0  0  0  0  0  0  0  0  0  0
   -1.3058   -0.4304    0.0000 C   0  0  1  0  0  0  0  0  0  0  0  0
   -2.1217   -0.1558    0.0000 C   0  0  0  0  0  0  0  0  0  0  0  0
   -2.4335    0.6346    0.0000 C   0  0  0  0  0  0  0  0  0  0  0  0
   -3.2184    0.8887    0.0000 O   0  0  0  0  0  0  0  0  0  0  0  0
   -1.7238    1.0881    0.0000 O   0  0  0  0  0  0  0  0  0  0  0  0
   -0.8955    0.7912    0.0000 C   0  0  2  0  0  0  0  0  0  0  0  0
    0.0397    0.5412    0.0000 O   0  0  0  0  0  0  0  0  0  0  0  0
   -0.5658    0.0607    0.0000 C   0  0  1  0  0  0  0  0  0  0  0  0
   -0.3171    0.9916    0.0000 O   0  0  0  0  0  0  0  0  0  0  0  0
    0.3528    1.5260    0.0000 O   0  0  0  0  0  0  0  0  0  0  0  0
    0.3388    0.1243    0.0000 H   0  0  0  0  0  0  0  0  0  0  0  0
    1.9344    0.2153    0.0000 H   0  0  0  0  0  0  0  0  0  0  0  0
    3.0262    0.6267    0.0000 H   0  0  0  0  0  0  0  0  0  0  0  0
    2.6148    1.7185    0.0000 H   0  0  0  0  0  0  0  0  0  0  0  0
    1.8190    2.0772    0.0000 H   0  0  0  0  0  0  0  0  0  0  0  0
    1.0820    2.0043    0.0000 H   0  0  0  0  0  0  0  0  0  0  0  0
    1.7949   -0.5723    0.0000 H   0  0  0  0  0  0  0  0  0  0  0  0
    1.6756    0.8873    0.0000 H   0  0  0  0  0  0  0  0  0  0  0  0
    0.4930   -1.3099    0.0000 H   0  0  0  0  0  0  0  0  0  0  0  0
    1.3030   -1.2810    0.0000 H   0  0  0  0  0  0  0  0  0  0  0  0
   -0.7881   -1.0137    0.0000 H   0  0  0  0  0  0  0  0  0  0  0  0
   -0.0330   -2.5170    0.0000 H   0  0  0  0  0  0  0  0  0  0  0  0
    0.9938   -2.6597    0.0000 H   0  0  0  0  0  0  0  0  0  0  0  0
    1.3494   -1.6858    0.0000 H   0  0  0  0  0  0  0  0  0  0  0  0
   -1.3541   -2.5364    0.0000 H   0  0  0  0  0  0  0  0  0  0  0  0
   -0.5761   -2.6690    0.0000 H   0  0  0  0  0  0  0  0  0  0  0  0
   -2.2119   -1.1649    0.0000 H   0  0  0  0  0  0  0  0  0  0  0  0
   -1.9954   -1.8360    0.0000 H   0  0  0  0  0  0  0  0  0  0  0  0
   -1.4133    0.3876    0.0000 H   0  0  0  0  0  0  0  0  0  0  0  0
   -2.8923   -0.4505    0.0000 H   0  0  0  0  0  0  0  0  0  0  0  0
   -2.3766   -0.9405    0.0000 H   0  0  0  0  0  0  0  0  0  0  0  0
   -0.8911    1.6162    0.0000 H   0  0  0  0  0  0  0  0  0  0  0  0
  1  2  1  0  0  0  0
  1 22  1  0  0  0  0
  1 23  1  0  0  0  0
  1 24  1  0  0  0  0
  3  2  1  1  0  0  0
  2 25  1  0  0  0  0
  2 26  1  0  0  0  0
  3  4  1  0  0  0  0
  3 17  1  0  0  0  0
  3 20  1  0  0  0  0
  4  5  1  0  0  0  0
  4 27  1  0  0  0  0
  4 28  1  0  0  0  0
  6  5  1  0  0  0  0
  5 29  1  0  0  0  0
  5 30  1  0  0  0  0
  6 21  1  6  0  0  0
  6  7  1  0  0  0  0
 18  6  1  0  0  0  0
  7  8  1  0  0  0  0
  7  9  1  1  0  0  0
  7 31  1  6  0  0  0
  8 32  1  0  0  0  0
  8 33  1  0  0  0  0
  8 34  1  0  0  0  0
  9 10  1  0  0  0  0
  9 35  1  0  0  0  0
  9 36  1  0  0  0  0
 11 10  1  0  0  0  0
 10 37  1  0  0  0  0
 10 38  1  0  0  0  0
 11 12  1  0  0  0  0
 18 11  1  0  0  0  0
 11 39  1  6  0  0  0
 12 13  1  0  0  0  0
 12 40  1  0  0  0  0
 12 41  1  0  0  0  0
 13 14  2  0  0  0  0
 13 15  1  0  0  0  0
 16 15  1  0  0  0  0
 16 17  1  0  0  0  0
 18 16  1  0  0  0  0
 16 42  1  1  0  0  0
 18 19  1  6  0  0  0
 19 20  1  0  0  0  0
M  END
