
  Mrv171c004271813302D          

 55 59  0  0  0  0            999 V2000
    1.6913   -1.7597    0.0000 C   0  0  0  0  0  0  0  0  0  0  0  0
    1.0029   -1.3051    0.0000 C   0  0  1  0  0  0  0  0  0  0  0  0
    0.2837   -1.7363    0.0000 C   0  0  0  0  0  0  0  0  0  0  0  0
   -0.2798   -1.1168    0.0000 C   0  0  0  0  0  0  0  0  0  0  0  0
   -0.1837   -0.2619    0.0000 C   0  0  1  0  0  0  0  0  0  0  0  0
   -1.0163   -0.0292    0.0000 C   0  0  2  0  0  0  0  0  0  0  0  0
   -1.0699   -0.8524    0.0000 C   0  0  0  0  0  0  0  0  0  0  0  0
   -1.8329   -0.1464    0.0000 Br  0  0  0  0  0  0  0  0  0  0  0  0
   -1.3049    0.7609    0.0000 C   0  0  1  0  0  0  0  0  0  0  0  0
   -2.0873    1.0224    0.0000 C   0  0  0  0  0  0  0  0  0  0  0  0
   -2.7050    0.4755    0.0000 C   0  0  0  0  0  0  0  0  0  0  0  0
   -3.4875    0.7370    0.0000 C   0  0  0  0  0  0  0  0  0  0  0  0
   -3.6523    1.5453    0.0000 C   0  0  0  0  0  0  0  0  0  0  0  0
   -4.4347    1.8068    0.0000 N   0  0  0  0  0  0  0  0  0  0  0  0
   -3.0346    2.0922    0.0000 C   0  0  0  0  0  0  0  0  0  0  0  0
   -2.2521    1.8308    0.0000 C   0  0  0  0  0  0  0  0  0  0  0  0
   -0.5997    1.2186    0.0000 O   0  0  0  0  0  0  0  0  0  0  0  0
    0.2151    0.9479    0.0000 C   0  0  2  0  0  0  0  0  0  0  0  0
    1.1478    0.7272    0.0000 O   0  0  0  0  0  0  0  0  0  0  0  0
    1.9798    0.9402    0.0000 C   0  0  1  0  0  0  0  0  0  0  0  0
    2.6653    1.3993    0.0000 C   0  0  0  0  0  0  0  0  0  0  0  0
    2.4656    0.2424    0.0000 C   0  0  0  0  0  0  0  0  0  0  0  0
    1.9768   -0.4466    0.0000 C   0  0  0  0  0  0  0  0  0  0  0  0
    1.1193   -0.4578    0.0000 C   0  0  2  0  0  0  0  0  0  0  0  0
    0.5587    0.2376    0.0000 C   0  0  1  0  0  0  0  0  0  0  0  0
    0.7972    1.1884    0.0000 O   0  0  0  0  0  0  0  0  0  0  0  0
    1.5234    1.6488    0.0000 O   0  0  0  0  0  0  0  0  0  0  0  0
    0.3042   -0.3306    0.0000 H   0  0  0  0  0  0  0  0  0  0  0  0
    1.2367   -2.4482    0.0000 H   0  0  0  0  0  0  0  0  0  0  0  0
    2.3798   -2.2144    0.0000 H   0  0  0  0  0  0  0  0  0  0  0  0
    2.1460   -1.0713    0.0000 H   0  0  0  0  0  0  0  0  0  0  0  0
    1.7544   -0.9647    0.0000 H   0  0  0  0  0  0  0  0  0  0  0  0
   -0.2142   -2.3941    0.0000 H   0  0  0  0  0  0  0  0  0  0  0  0
    0.5707   -2.5097    0.0000 H   0  0  0  0  0  0  0  0  0  0  0  0
   -0.7304   -1.8078    0.0000 H   0  0  0  0  0  0  0  0  0  0  0  0
    0.5051   -0.8627    0.0000 H   0  0  0  0  0  0  0  0  0  0  0  0
   -0.3150    0.5526    0.0000 H   0  0  0  0  0  0  0  0  0  0  0  0
   -1.7849   -0.4410    0.0000 H   0  0  0  0  0  0  0  0  0  0  0  0
   -1.7547   -1.3125    0.0000 H   0  0  0  0  0  0  0  0  0  0  0  0
   -0.9594   -1.6700    0.0000 H   0  0  0  0  0  0  0  0  0  0  0  0
   -1.4090    1.5793    0.0000 H   0  0  0  0  0  0  0  0  0  0  0  0
   -2.5402   -0.3329    0.0000 H   0  0  0  0  0  0  0  0  0  0  0  0
   -4.1051    0.1901    0.0000 H   0  0  0  0  0  0  0  0  0  0  0  0
   -4.5995    2.6152    0.0000 H   0  0  0  0  0  0  0  0  0  0  0  0
   -5.0524    1.2599    0.0000 H   0  0  0  0  0  0  0  0  0  0  0  0
   -3.1994    2.9006    0.0000 H   0  0  0  0  0  0  0  0  0  0  0  0
   -2.0035    2.6174    0.0000 H   0  0  0  0  0  0  0  0  0  0  0  0
    0.1858    1.7724    0.0000 H   0  0  0  0  0  0  0  0  0  0  0  0
    3.1244    0.7138    0.0000 H   0  0  0  0  0  0  0  0  0  0  0  0
    3.3507    1.8584    0.0000 H   0  0  0  0  0  0  0  0  0  0  0  0
    2.2062    2.0847    0.0000 H   0  0  0  0  0  0  0  0  0  0  0  0
    2.7246   -0.5409    0.0000 H   0  0  0  0  0  0  0  0  0  0  0  0
    3.2499   -0.0133    0.0000 H   0  0  0  0  0  0  0  0  0  0  0  0
    1.8808    0.3728    0.0000 H   0  0  0  0  0  0  0  0  0  0  0  0
    1.3569    0.0977    0.0000 H   0  0  0  0  0  0  0  0  0  0  0  0
  2  1  1  1  0  0  0
  1 29  1  0  0  0  0
  1 30  1  0  0  0  0
  1 31  1  0  0  0  0
  2  3  1  0  0  0  0
 24  2  1  0  0  0  0
  2 32  1  6  0  0  0
  3  4  1  0  0  0  0
  3 33  1  0  0  0  0
  3 34  1  0  0  0  0
  5  4  1  0  0  0  0
  4 35  1  0  0  0  0
  4 36  1  0  0  0  0
  5  6  1  0  0  0  0
 25  5  1  0  0  0  0
  5 37  1  6  0  0  0
  6  7  1  1  0  0  0
  6  8  1  6  0  0  0
  6  9  1  0  0  0  0
  7 38  1  0  0  0  0
  7 39  1  0  0  0  0
  7 40  1  0  0  0  0
  9 10  1  1  0  0  0
  9 17  1  0  0  0  0
  9 41  1  6  0  0  0
 10 11  1  0  0  0  0
 10 16  2  0  0  0  0
 11 12  2  0  0  0  0
 11 42  1  0  0  0  0
 12 13  1  0  0  0  0
 12 43  1  0  0  0  0
 13 14  1  0  0  0  0
 13 15  2  0  0  0  0
 14 44  1  0  0  0  0
 14 45  1  0  0  0  0
 15 16  1  0  0  0  0
 15 46  1  0  0  0  0
 16 47  1  0  0  0  0
 18 17  1  0  0  0  0
 18 19  1  0  0  0  0
 25 18  1  0  0  0  0
 18 48  1  1  0  0  0
 20 19  1  0  0  0  0
 20 21  1  1  0  0  0
 20 22  1  0  0  0  0
 20 27  1  0  0  0  0
 21 49  1  0  0  0  0
 21 50  1  0  0  0  0
 21 51  1  0  0  0  0
 22 23  1  0  0  0  0
 22 52  1  0  0  0  0
 22 53  1  0  0  0  0
 24 23  1  0  0  0  0
 23 54  1  0  0  0  0
 23 55  1  0  0  0  0
 24 28  1  6  0  0  0
 25 24  1  0  0  0  0
 25 26  1  6  0  0  0
 26 27  1  0  0  0  0
M  END
