
  Mrv171c004271813302D          

 55 59  0  0  0  0            999 V2000
    1.9681   -1.0609    0.0000 C   0  0  0  0  0  0  0  0  0  0  0  0
    1.2797   -0.6063    0.0000 C   0  0  1  0  0  0  0  0  0  0  0  0
    0.5605   -1.0375    0.0000 C   0  0  0  0  0  0  0  0  0  0  0  0
   -0.0030   -0.4180    0.0000 C   0  0  0  0  0  0  0  0  0  0  0  0
    0.0931    0.4369    0.0000 C   0  0  1  0  0  0  0  0  0  0  0  0
   -0.7395    0.6696    0.0000 C   0  0  1  0  0  0  0  0  0  0  0  0
   -1.2998    0.0640    0.0000 C   0  0  0  0  0  0  0  0  0  0  0  0
   -2.1044    0.2465    0.0000 C   0  0  0  0  0  0  0  0  0  0  0  0
   -2.6646   -0.3591    0.0000 C   0  0  0  0  0  0  0  0  0  0  0  0
   -2.4203   -1.1471    0.0000 C   0  0  0  0  0  0  0  0  0  0  0  0
   -2.9806   -1.7527    0.0000 C   0  0  0  0  0  0  0  0  0  0  0  0
   -3.7852   -1.5702    0.0000 C   0  0  0  0  0  0  0  0  0  0  0  0
   -4.0295   -0.7822    0.0000 C   0  0  0  0  0  0  0  0  0  0  0  0
   -3.4692   -0.1767    0.0000 C   0  0  0  0  0  0  0  0  0  0  0  0
   -1.0280    1.4597    0.0000 C   0  0  0  0  0  0  0  0  0  0  0  0
   -1.8105    1.7212    0.0000 O   0  0  0  0  0  0  0  0  0  0  0  0
   -0.3229    1.9173    0.0000 O   0  0  0  0  0  0  0  0  0  0  0  0
    0.4919    1.6467    0.0000 C   0  0  2  0  0  0  0  0  0  0  0  0
    1.4246    1.4260    0.0000 O   0  0  0  0  0  0  0  0  0  0  0  0
    2.2566    1.6390    0.0000 C   0  0  1  0  0  0  0  0  0  0  0  0
    2.9421    2.0981    0.0000 C   0  0  0  0  0  0  0  0  0  0  0  0
    2.7424    0.9412    0.0000 C   0  0  0  0  0  0  0  0  0  0  0  0
    2.2536    0.2522    0.0000 C   0  0  0  0  0  0  0  0  0  0  0  0
    1.3961    0.2410    0.0000 C   0  0  2  0  0  0  0  0  0  0  0  0
    0.8355    0.9364    0.0000 C   0  0  1  0  0  0  0  0  0  0  0  0
    1.0741    1.8872    0.0000 O   0  0  0  0  0  0  0  0  0  0  0  0
    1.8002    2.3476    0.0000 O   0  0  0  0  0  0  0  0  0  0  0  0
   -0.5148   -0.1242    0.0000 H   0  0  0  0  0  0  0  0  0  0  0  0
    0.6012    0.0201    0.0000 H   0  0  0  0  0  0  0  0  0  0  0  0
    1.5135   -1.7494    0.0000 H   0  0  0  0  0  0  0  0  0  0  0  0
    2.6566   -1.5156    0.0000 H   0  0  0  0  0  0  0  0  0  0  0  0
    2.4228   -0.3725    0.0000 H   0  0  0  0  0  0  0  0  0  0  0  0
    2.0312   -0.2659    0.0000 H   0  0  0  0  0  0  0  0  0  0  0  0
    0.0626   -1.6953    0.0000 H   0  0  0  0  0  0  0  0  0  0  0  0
    0.8475   -1.8110    0.0000 H   0  0  0  0  0  0  0  0  0  0  0  0
   -0.8210   -0.3107    0.0000 H   0  0  0  0  0  0  0  0  0  0  0  0
   -0.6029   -0.9843    0.0000 H   0  0  0  0  0  0  0  0  0  0  0  0
   -0.0382    1.2514    0.0000 H   0  0  0  0  0  0  0  0  0  0  0  0
   -1.6538   -0.6811    0.0000 H   0  0  0  0  0  0  0  0  0  0  0  0
   -1.5441    0.8520    0.0000 H   0  0  0  0  0  0  0  0  0  0  0  0
   -2.4818    0.9801    0.0000 H   0  0  0  0  0  0  0  0  0  0  0  0
   -2.8650    0.5658    0.0000 H   0  0  0  0  0  0  0  0  0  0  0  0
   -1.8982   -1.7859    0.0000 H   0  0  0  0  0  0  0  0  0  0  0  0
   -2.7363   -2.5407    0.0000 H   0  0  0  0  0  0  0  0  0  0  0  0
   -4.3455   -2.1758    0.0000 H   0  0  0  0  0  0  0  0  0  0  0  0
   -4.8341   -0.5998    0.0000 H   0  0  0  0  0  0  0  0  0  0  0  0
   -4.0923    0.3641    0.0000 H   0  0  0  0  0  0  0  0  0  0  0  0
    0.4626    2.4712    0.0000 H   0  0  0  0  0  0  0  0  0  0  0  0
    3.4012    1.4126    0.0000 H   0  0  0  0  0  0  0  0  0  0  0  0
    3.6275    2.5572    0.0000 H   0  0  0  0  0  0  0  0  0  0  0  0
    2.4830    2.7835    0.0000 H   0  0  0  0  0  0  0  0  0  0  0  0
    3.0014    0.1579    0.0000 H   0  0  0  0  0  0  0  0  0  0  0  0
    3.5268    0.6854    0.0000 H   0  0  0  0  0  0  0  0  0  0  0  0
    2.1576    1.0716    0.0000 H   0  0  0  0  0  0  0  0  0  0  0  0
    1.6337    0.7965    0.0000 H   0  0  0  0  0  0  0  0  0  0  0  0
  2  1  1  1  0  0  0
  1 30  1  0  0  0  0
  1 31  1  0  0  0  0
  1 32  1  0  0  0  0
  2  3  1  0  0  0  0
 24  2  1  0  0  0  0
  2 33  1  6  0  0  0
  3  4  1  0  0  0  0
  3 34  1  0  0  0  0
  3 35  1  0  0  0  0
  5  4  1  0  0  0  0
  4 36  1  0  0  0  0
  4 37  1  0  0  0  0
  5  6  1  0  0  0  0
 25  5  1  0  0  0  0
  5 38  1  6  0  0  0
  6 28  1  6  0  0  0
  6  7  1  1  0  0  0
  6 15  1  0  0  0  0
  7  8  1  0  0  0  0
  7 39  1  0  0  0  0
  7 40  1  0  0  0  0
  8  9  1  0  0  0  0
  8 41  1  0  0  0  0
  8 42  1  0  0  0  0
  9 10  1  0  0  0  0
  9 14  2  0  0  0  0
 10 11  2  0  0  0  0
 10 43  1  0  0  0  0
 11 12  1  0  0  0  0
 11 44  1  0  0  0  0
 12 13  2  0  0  0  0
 12 45  1  0  0  0  0
 13 14  1  0  0  0  0
 13 46  1  0  0  0  0
 14 47  1  0  0  0  0
 15 16  2  0  0  0  0
 15 17  1  0  0  0  0
 18 17  1  0  0  0  0
 18 19  1  0  0  0  0
 25 18  1  0  0  0  0
 18 48  1  1  0  0  0
 20 19  1  0  0  0  0
 20 21  1  1  0  0  0
 20 22  1  0  0  0  0
 20 27  1  0  0  0  0
 21 49  1  0  0  0  0
 21 50  1  0  0  0  0
 21 51  1  0  0  0  0
 22 23  1  0  0  0  0
 22 52  1  0  0  0  0
 22 53  1  0  0  0  0
 24 23  1  0  0  0  0
 23 54  1  0  0  0  0
 23 55  1  0  0  0  0
 24 29  1  6  0  0  0
 25 24  1  0  0  0  0
 25 26  1  6  0  0  0
 26 27  1  0  0  0  0
M  END
