
  Mrv171c004271813302D          

 42 45  0  0  0  0            999 V2000
    1.5368   -1.5380    0.0000 C   0  0  0  0  0  0  0  0  0  0  0  0
    0.8035   -1.1599    0.0000 C   0  0  1  0  0  0  0  0  0  0  0  0
    0.1042   -1.5748    0.0000 C   0  0  0  0  0  0  0  0  0  0  0  0
   -0.6356   -1.2054    0.0000 C   0  0  0  0  0  0  0  0  0  0  0  0
   -0.6811   -0.3741    0.0000 C   0  0  1  0  0  0  0  0  0  0  0  0
   -1.4880   -0.1835    0.0000 C   0  0  1  0  0  0  0  0  0  0  0  0
   -2.0558   -0.7821    0.0000 C   0  0  0  0  0  0  0  0  0  0  0  0
   -1.7201    0.6091    0.0000 C   0  0  0  0  0  0  0  0  0  0  0  0
   -1.1824    1.2253    0.0000 O   0  0  0  0  0  0  0  0  0  0  0  0
   -0.3855    1.0191    0.0000 C   0  0  2  0  0  0  0  0  0  0  0  0
    0.2014    1.6698    0.0000 O   0  0  0  0  0  0  0  0  0  0  0  0
    0.9529    1.2732    0.0000 C   0  0  1  0  0  0  0  0  0  0  0  0
    1.3913    1.9721    0.0000 C   0  0  0  0  0  0  0  0  0  0  0  0
    1.6417    0.7657    0.0000 C   0  0  0  0  0  0  0  0  0  0  0  0
    1.5655   -0.0737    0.0000 C   0  0  0  0  0  0  0  0  0  0  0  0
    0.7351   -0.3373    0.0000 C   0  0  2  0  0  0  0  0  0  0  0  0
   -0.0271    0.1773    0.0000 C   0  0  1  0  0  0  0  0  0  0  0  0
    0.4704    0.6678    0.0000 O   0  0  0  0  0  0  0  0  0  0  0  0
   -1.2522   -0.9741    0.0000 H   0  0  0  0  0  0  0  0  0  0  0  0
    0.0232   -0.7543    0.0000 H   0  0  0  0  0  0  0  0  0  0  0  0
    1.1587   -2.2712    0.0000 H   0  0  0  0  0  0  0  0  0  0  0  0
    2.2700   -1.9161    0.0000 H   0  0  0  0  0  0  0  0  0  0  0  0
    1.9149   -0.8047    0.0000 H   0  0  0  0  0  0  0  0  0  0  0  0
    1.4896   -0.7016    0.0000 H   0  0  0  0  0  0  0  0  0  0  0  0
   -0.2351   -2.3268    0.0000 H   0  0  0  0  0  0  0  0  0  0  0  0
    0.4970   -2.3003    0.0000 H   0  0  0  0  0  0  0  0  0  0  0  0
   -1.4552   -1.3001    0.0000 H   0  0  0  0  0  0  0  0  0  0  0  0
   -1.0481   -1.9198    0.0000 H   0  0  0  0  0  0  0  0  0  0  0  0
   -0.8726    0.4283    0.0000 H   0  0  0  0  0  0  0  0  0  0  0  0
   -2.4004   -0.0325    0.0000 H   0  0  0  0  0  0  0  0  0  0  0  0
   -2.8797   -0.8234    0.0000 H   0  0  0  0  0  0  0  0  0  0  0  0
   -2.3237   -1.5623    0.0000 H   0  0  0  0  0  0  0  0  0  0  0  0
   -1.9618    1.3979    0.0000 H   0  0  0  0  0  0  0  0  0  0  0  0
   -2.5177    0.8201    0.0000 H   0  0  0  0  0  0  0  0  0  0  0  0
   -0.6229    1.8092    0.0000 H   0  0  0  0  0  0  0  0  0  0  0  0
    2.0902    1.5337    0.0000 H   0  0  0  0  0  0  0  0  0  0  0  0
    1.8297    2.6710    0.0000 H   0  0  0  0  0  0  0  0  0  0  0  0
    0.6925    2.4105    0.0000 H   0  0  0  0  0  0  0  0  0  0  0  0
    2.4275    0.5144    0.0000 H   0  0  0  0  0  0  0  0  0  0  0  0
    0.8893    0.4273    0.0000 H   0  0  0  0  0  0  0  0  0  0  0  0
    2.3635   -0.2830    0.0000 H   0  0  0  0  0  0  0  0  0  0  0  0
    2.2409    0.4002    0.0000 H   0  0  0  0  0  0  0  0  0  0  0  0
  2  1  1  0  0  0  0
  1 21  1  0  0  0  0
  1 22  1  0  0  0  0
  1 23  1  0  0  0  0
  2  3  1  0  0  0  0
 16  2  1  0  0  0  0
  2 24  1  6  0  0  0
  3  4  1  0  0  0  0
  3 25  1  0  0  0  0
  3 26  1  0  0  0  0
  5  4  1  0  0  0  0
  4 27  1  0  0  0  0
  4 28  1  0  0  0  0
  5  6  1  0  0  0  0
 17  5  1  0  0  0  0
  5 29  1  6  0  0  0
  6 19  1  6  0  0  0
  6  7  1  0  0  0  0
  6  8  1  0  0  0  0
  7 30  1  0  0  0  0
  7 31  1  0  0  0  0
  7 32  1  0  0  0  0
  8  9  1  0  0  0  0
  8 33  1  0  0  0  0
  8 34  1  0  0  0  0
 10  9  1  0  0  0  0
 10 11  1  0  0  0  0
 17 10  1  0  0  0  0
 10 35  1  1  0  0  0
 12 11  1  0  0  0  0
 12 13  1  6  0  0  0
 12 14  1  0  0  0  0
 12 18  1  0  0  0  0
 13 36  1  0  0  0  0
 13 37  1  0  0  0  0
 13 38  1  0  0  0  0
 14 15  1  0  0  0  0
 14 39  1  0  0  0  0
 14 40  1  0  0  0  0
 16 15  1  0  0  0  0
 15 41  1  0  0  0  0
 15 42  1  0  0  0  0
 16 20  1  6  0  0  0
 17 16  1  0  0  0  0
 17 18  1  6  0  0  0
M  END
