
  Mrv171c004271813302D          

 43 46  0  0  0  0            999 V2000
   -3.0180   -0.3623    0.0000 C   0  0  0  0  0  0  0  0  0  0  0  0
   -2.2134   -0.5448    0.0000 C   0  0  0  0  0  0  0  0  0  0  0  0
   -1.6531    0.0608    0.0000 C   0  0  0  0  0  0  0  0  0  0  0  0
   -1.9417    0.8509    0.0000 C   0  0  0  0  0  0  0  0  0  0  0  0
   -2.7241    1.1124    0.0000 O   0  0  0  0  0  0  0  0  0  0  0  0
   -1.2365    1.3085    0.0000 O   0  0  0  0  0  0  0  0  0  0  0  0
   -0.4217    1.0379    0.0000 C   0  0  2  0  0  0  0  0  0  0  0  0
    0.5110    0.8172    0.0000 O   0  0  0  0  0  0  0  0  0  0  0  0
    1.3430    1.0302    0.0000 C   0  0  1  0  0  0  0  0  0  0  0  0
    2.0285    1.4893    0.0000 C   0  0  0  0  0  0  0  0  0  0  0  0
    1.8288    0.3324    0.0000 C   0  0  0  0  0  0  0  0  0  0  0  0
    1.3400   -0.3566    0.0000 C   0  0  0  0  0  0  0  0  0  0  0  0
    0.4825   -0.3678    0.0000 C   0  0  1  0  0  0  0  0  0  0  0  0
    0.3661   -1.2151    0.0000 C   0  0  1  0  0  0  0  0  0  0  0  0
    1.0545   -1.6697    0.0000 C   0  0  0  0  0  0  0  0  0  0  0  0
   -0.3531   -1.6463    0.0000 C   0  0  0  0  0  0  0  0  0  0  0  0
   -0.9166   -1.0268    0.0000 C   0  0  0  0  0  0  0  0  0  0  0  0
   -0.8205   -0.1719    0.0000 C   0  0  2  0  0  0  0  0  0  0  0  0
   -0.0781    0.3276    0.0000 C   0  0  1  0  0  0  0  0  0  0  0  0
    0.1604    1.2784    0.0000 O   0  0  0  0  0  0  0  0  0  0  0  0
    0.8866    1.7388    0.0000 O   0  0  0  0  0  0  0  0  0  0  0  0
    0.8336    0.3787    0.0000 H   0  0  0  0  0  0  0  0  0  0  0  0
   -2.8355    0.4422    0.0000 H   0  0  0  0  0  0  0  0  0  0  0  0
   -3.8226   -0.1799    0.0000 H   0  0  0  0  0  0  0  0  0  0  0  0
   -3.2004   -1.1669    0.0000 H   0  0  0  0  0  0  0  0  0  0  0  0
   -1.9691   -1.3328    0.0000 H   0  0  0  0  0  0  0  0  0  0  0  0
   -0.4510    1.8624    0.0000 H   0  0  0  0  0  0  0  0  0  0  0  0
    2.4876    0.8038    0.0000 H   0  0  0  0  0  0  0  0  0  0  0  0
    2.7139    1.9484    0.0000 H   0  0  0  0  0  0  0  0  0  0  0  0
    1.5693    2.1747    0.0000 H   0  0  0  0  0  0  0  0  0  0  0  0
    2.0877   -0.4509    0.0000 H   0  0  0  0  0  0  0  0  0  0  0  0
    2.6131    0.0766    0.0000 H   0  0  0  0  0  0  0  0  0  0  0  0
    0.9041   -1.0571    0.0000 H   0  0  0  0  0  0  0  0  0  0  0  0
    1.6946   -1.1015    0.0000 H   0  0  0  0  0  0  0  0  0  0  0  0
   -0.3223   -0.7605    0.0000 H   0  0  0  0  0  0  0  0  0  0  0  0
    0.3424   -2.0862    0.0000 H   0  0  0  0  0  0  0  0  0  0  0  0
    1.1132   -2.4927    0.0000 H   0  0  0  0  0  0  0  0  0  0  0  0
    1.8186   -1.9810    0.0000 H   0  0  0  0  0  0  0  0  0  0  0  0
   -1.0797   -2.0371    0.0000 H   0  0  0  0  0  0  0  0  0  0  0  0
   -0.6122   -2.4296    0.0000 H   0  0  0  0  0  0  0  0  0  0  0  0
   -1.7346   -0.9195    0.0000 H   0  0  0  0  0  0  0  0  0  0  0  0
   -1.5166   -1.5931    0.0000 H   0  0  0  0  0  0  0  0  0  0  0  0
   -0.9518    0.6426    0.0000 H   0  0  0  0  0  0  0  0  0  0  0  0
  1  2  1  0  0  0  0
  1 23  1  0  0  0  0
  1 24  1  0  0  0  0
  1 25  1  0  0  0  0
  2  3  2  0  0  0  0
  2 26  1  0  0  0  0
  3  4  1  0  0  0  0
 18  3  1  0  0  0  0
  4  5  2  0  0  0  0
  4  6  1  0  0  0  0
  7  6  1  0  0  0  0
  7  8  1  0  0  0  0
 19  7  1  0  0  0  0
  7 27  1  1  0  0  0
  9  8  1  0  0  0  0
  9 10  1  1  0  0  0
  9 11  1  0  0  0  0
  9 21  1  0  0  0  0
 10 28  1  0  0  0  0
 10 29  1  0  0  0  0
 10 30  1  0  0  0  0
 11 12  1  0  0  0  0
 11 31  1  0  0  0  0
 11 32  1  0  0  0  0
 13 12  1  0  0  0  0
 12 33  1  0  0  0  0
 12 34  1  0  0  0  0
 13 22  1  6  0  0  0
 13 14  1  0  0  0  0
 19 13  1  0  0  0  0
 14 15  1  0  0  0  0
 14 16  1  1  0  0  0
 14 35  1  6  0  0  0
 15 36  1  0  0  0  0
 15 37  1  0  0  0  0
 15 38  1  0  0  0  0
 16 17  1  0  0  0  0
 16 39  1  0  0  0  0
 16 40  1  0  0  0  0
 18 17  1  0  0  0  0
 17 41  1  0  0  0  0
 17 42  1  0  0  0  0
 19 18  1  0  0  0  0
 18 43  1  6  0  0  0
 19 20  1  6  0  0  0
 20 21  1  0  0  0  0
M  END
