
  Mrv171c004271813302D          

 55 58  0  0  0  0            999 V2000
   -2.0634   -2.7955    0.0000 C   0  0  0  0  0  0  0  0  0  0  0  0
   -1.5032   -2.1899    0.0000 C   0  0  0  0  0  0  0  0  0  0  0  0
   -1.7475   -1.4019    0.0000 C   0  0  0  0  0  0  0  0  0  0  0  0
   -1.1872   -0.7964    0.0000 C   0  0  0  0  0  0  0  0  0  0  0  0
   -1.4315   -0.0084    0.0000 C   0  0  0  0  0  0  0  0  0  0  0  0
   -0.8712    0.5972    0.0000 C   0  0  1  0  0  0  0  0  0  0  0  0
   -1.1597    1.3873    0.0000 C   0  0  0  0  0  0  0  0  0  0  0  0
   -0.4546    1.8449    0.0000 O   0  0  0  0  0  0  0  0  0  0  0  0
    0.3602    1.5743    0.0000 C   0  0  2  0  0  0  0  0  0  0  0  0
    1.2929    1.3536    0.0000 O   0  0  0  0  0  0  0  0  0  0  0  0
    2.1249    1.5666    0.0000 C   0  0  1  0  0  0  0  0  0  0  0  0
    2.8104    2.0257    0.0000 C   0  0  0  0  0  0  0  0  0  0  0  0
    2.6107    0.8688    0.0000 C   0  0  0  0  0  0  0  0  0  0  0  0
    2.1219    0.1798    0.0000 C   0  0  0  0  0  0  0  0  0  0  0  0
    1.2644    0.1686    0.0000 C   0  0  1  0  0  0  0  0  0  0  0  0
    1.1480   -0.6787    0.0000 C   0  0  1  0  0  0  0  0  0  0  0  0
    1.8365   -1.1333    0.0000 C   0  0  0  0  0  0  0  0  0  0  0  0
    0.4288   -1.1099    0.0000 C   0  0  0  0  0  0  0  0  0  0  0  0
   -0.1347   -0.4904    0.0000 C   0  0  0  0  0  0  0  0  0  0  0  0
   -0.0386    0.3645    0.0000 C   0  0  2  0  0  0  0  0  0  0  0  0
    0.7038    0.8640    0.0000 C   0  0  1  0  0  0  0  0  0  0  0  0
    0.9424    1.8148    0.0000 O   0  0  0  0  0  0  0  0  0  0  0  0
    1.6685    2.2752    0.0000 O   0  0  0  0  0  0  0  0  0  0  0  0
   -0.6465   -0.1966    0.0000 H   0  0  0  0  0  0  0  0  0  0  0  0
    1.6156    0.9151    0.0000 H   0  0  0  0  0  0  0  0  0  0  0  0
   -2.6690   -2.2352    0.0000 H   0  0  0  0  0  0  0  0  0  0  0  0
   -2.6237   -3.4011    0.0000 H   0  0  0  0  0  0  0  0  0  0  0  0
   -1.4579   -3.3558    0.0000 H   0  0  0  0  0  0  0  0  0  0  0  0
   -0.8660   -2.7141    0.0000 H   0  0  0  0  0  0  0  0  0  0  0  0
   -0.7023   -1.9919    0.0000 H   0  0  0  0  0  0  0  0  0  0  0  0
   -2.3846   -0.8778    0.0000 H   0  0  0  0  0  0  0  0  0  0  0  0
   -2.5483   -1.6000    0.0000 H   0  0  0  0  0  0  0  0  0  0  0  0
   -0.5501   -1.3205    0.0000 H   0  0  0  0  0  0  0  0  0  0  0  0
   -0.3863   -0.5983    0.0000 H   0  0  0  0  0  0  0  0  0  0  0  0
   -2.0686    0.5158    0.0000 H   0  0  0  0  0  0  0  0  0  0  0  0
   -2.2323   -0.2064    0.0000 H   0  0  0  0  0  0  0  0  0  0  0  0
   -1.7219    1.9911    0.0000 H   0  0  0  0  0  0  0  0  0  0  0  0
   -1.9720    1.2428    0.0000 H   0  0  0  0  0  0  0  0  0  0  0  0
    0.3309    2.3988    0.0000 H   0  0  0  0  0  0  0  0  0  0  0  0
    3.2695    1.3402    0.0000 H   0  0  0  0  0  0  0  0  0  0  0  0
    3.4958    2.4848    0.0000 H   0  0  0  0  0  0  0  0  0  0  0  0
    2.3513    2.7111    0.0000 H   0  0  0  0  0  0  0  0  0  0  0  0
    2.8697    0.0855    0.0000 H   0  0  0  0  0  0  0  0  0  0  0  0
    3.3951    0.6130    0.0000 H   0  0  0  0  0  0  0  0  0  0  0  0
    1.6860   -0.5207    0.0000 H   0  0  0  0  0  0  0  0  0  0  0  0
    2.4765   -0.5651    0.0000 H   0  0  0  0  0  0  0  0  0  0  0  0
    0.4596   -0.2241    0.0000 H   0  0  0  0  0  0  0  0  0  0  0  0
    1.1243   -1.5498    0.0000 H   0  0  0  0  0  0  0  0  0  0  0  0
    1.8951   -1.9563    0.0000 H   0  0  0  0  0  0  0  0  0  0  0  0
    2.6005   -1.4446    0.0000 H   0  0  0  0  0  0  0  0  0  0  0  0
   -0.3008   -1.4949    0.0000 H   0  0  0  0  0  0  0  0  0  0  0  0
    0.3965   -1.9343    0.0000 H   0  0  0  0  0  0  0  0  0  0  0  0
   -0.5075    0.2456    0.0000 H   0  0  0  0  0  0  0  0  0  0  0  0
    0.6729   -0.6589    0.0000 H   0  0  0  0  0  0  0  0  0  0  0  0
   -0.1699    1.1790    0.0000 H   0  0  0  0  0  0  0  0  0  0  0  0
  1  2  1  0  0  0  0
  1 26  1  0  0  0  0
  1 27  1  0  0  0  0
  1 28  1  0  0  0  0
  2  3  1  0  0  0  0
  2 29  1  0  0  0  0
  2 30  1  0  0  0  0
  3  4  1  0  0  0  0
  3 31  1  0  0  0  0
  3 32  1  0  0  0  0
  4  5  1  0  0  0  0
  4 33  1  0  0  0  0
  4 34  1  0  0  0  0
  6  5  1  1  0  0  0
  5 35  1  0  0  0  0
  5 36  1  0  0  0  0
  6 24  1  6  0  0  0
  6  7  1  0  0  0  0
 20  6  1  0  0  0  0
  7  8  1  0  0  0  0
  7 37  1  0  0  0  0
  7 38  1  0  0  0  0
  9  8  1  0  0  0  0
  9 10  1  0  0  0  0
 21  9  1  0  0  0  0
  9 39  1  1  0  0  0
 11 10  1  0  0  0  0
 11 12  1  1  0  0  0
 11 13  1  0  0  0  0
 11 23  1  0  0  0  0
 12 40  1  0  0  0  0
 12 41  1  0  0  0  0
 12 42  1  0  0  0  0
 13 14  1  0  0  0  0
 13 43  1  0  0  0  0
 13 44  1  0  0  0  0
 15 14  1  0  0  0  0
 14 45  1  0  0  0  0
 14 46  1  0  0  0  0
 15 25  1  6  0  0  0
 15 16  1  0  0  0  0
 21 15  1  0  0  0  0
 16 17  1  0  0  0  0
 16 18  1  1  0  0  0
 16 47  1  6  0  0  0
 17 48  1  0  0  0  0
 17 49  1  0  0  0  0
 17 50  1  0  0  0  0
 18 19  1  0  0  0  0
 18 51  1  0  0  0  0
 18 52  1  0  0  0  0
 20 19  1  0  0  0  0
 19 53  1  0  0  0  0
 19 54  1  0  0  0  0
 21 20  1  0  0  0  0
 20 55  1  6  0  0  0
 21 22  1  6  0  0  0
 22 23  1  0  0  0  0
M  END
