
  Mrv171c004271813302D          

 67 71  0  0  0  0            999 V2000
   -4.1708    0.4187    0.0000 C   0  0  0  0  0  0  0  0  0  0  0  0
   -3.3662    0.2363    0.0000 C   0  0  0  0  0  0  0  0  0  0  0  0
   -3.1220   -0.5517    0.0000 C   0  0  0  0  0  0  0  0  0  0  0  0
   -2.3174   -0.7342    0.0000 C   0  0  0  0  0  0  0  0  0  0  0  0
   -1.7571   -0.1286    0.0000 C   0  0  1  0  0  0  0  0  0  0  0  0
   -2.0456    0.6615    0.0000 C   0  0  0  0  0  0  0  0  0  0  0  0
   -2.8281    0.9230    0.0000 O   0  0  0  0  0  0  0  0  0  0  0  0
   -1.3405    1.1192    0.0000 O   0  0  0  0  0  0  0  0  0  0  0  0
   -0.5257    0.8485    0.0000 C   0  0  2  0  0  0  0  0  0  0  0  0
    0.4070    0.6278    0.0000 O   0  0  0  0  0  0  0  0  0  0  0  0
    1.2390    0.8408    0.0000 C   0  0  1  0  0  0  0  0  0  0  0  0
    1.9245    1.2999    0.0000 C   0  0  0  0  0  0  0  0  0  0  0  0
    2.6648    0.9358    0.0000 C   0  0  0  0  0  0  0  0  0  0  0  0
    3.3503    1.3949    0.0000 C   0  0  0  0  0  0  0  0  0  0  0  0
    4.0906    1.0309    0.0000 C   0  0  0  0  0  0  0  0  0  0  0  0
    4.7760    1.4900    0.0000 C   0  0  0  0  0  0  0  0  0  0  0  0
    5.5164    1.1259    0.0000 C   0  0  0  0  0  0  0  0  0  0  0  0
    5.5712    0.3028    0.0000 C   0  0  0  0  0  0  0  0  0  0  0  0
    6.3116   -0.0613    0.0000 Cl  0  0  0  0  0  0  0  0  0  0  0  0
    4.8858   -0.1563    0.0000 C   0  0  0  0  0  0  0  0  0  0  0  0
    4.1455    0.2077    0.0000 C   0  0  0  0  0  0  0  0  0  0  0  0
    1.7248    0.1430    0.0000 C   0  0  0  0  0  0  0  0  0  0  0  0
    1.2360   -0.5460    0.0000 C   0  0  0  0  0  0  0  0  0  0  0  0
    0.3785   -0.5572    0.0000 C   0  0  1  0  0  0  0  0  0  0  0  0
    0.2621   -1.4045    0.0000 C   0  0  1  0  0  0  0  0  0  0  0  0
    0.9505   -1.8591    0.0000 C   0  0  0  0  0  0  0  0  0  0  0  0
   -0.4571   -1.8357    0.0000 C   0  0  0  0  0  0  0  0  0  0  0  0
   -1.0206   -1.2162    0.0000 C   0  0  0  0  0  0  0  0  0  0  0  0
   -0.9245   -0.3613    0.0000 C   0  0  2  0  0  0  0  0  0  0  0  0
   -0.1821    0.1382    0.0000 C   0  0  1  0  0  0  0  0  0  0  0  0
    0.0565    1.0890    0.0000 O   0  0  0  0  0  0  0  0  0  0  0  0
    0.7826    1.5494    0.0000 O   0  0  0  0  0  0  0  0  0  0  0  0
   -1.5324   -0.9224    0.0000 H   0  0  0  0  0  0  0  0  0  0  0  0
    0.7297    0.1893    0.0000 H   0  0  0  0  0  0  0  0  0  0  0  0
   -3.9884    1.2233    0.0000 H   0  0  0  0  0  0  0  0  0  0  0  0
   -4.9754    0.6011    0.0000 H   0  0  0  0  0  0  0  0  0  0  0  0
   -4.3533   -0.3859    0.0000 H   0  0  0  0  0  0  0  0  0  0  0  0
   -3.6426    1.0136    0.0000 H   0  0  0  0  0  0  0  0  0  0  0  0
   -2.5549    0.0869    0.0000 H   0  0  0  0  0  0  0  0  0  0  0  0
   -3.8944   -0.8414    0.0000 H   0  0  0  0  0  0  0  0  0  0  0  0
   -3.3509   -1.3443    0.0000 H   0  0  0  0  0  0  0  0  0  0  0  0
   -2.4527   -1.5480    0.0000 H   0  0  0  0  0  0  0  0  0  0  0  0
   -1.7454   -1.3287    0.0000 H   0  0  0  0  0  0  0  0  0  0  0  0
   -0.5550    1.6730    0.0000 H   0  0  0  0  0  0  0  0  0  0  0  0
    2.2449    2.0601    0.0000 H   0  0  0  0  0  0  0  0  0  0  0  0
    1.5060    2.0109    0.0000 H   0  0  0  0  0  0  0  0  0  0  0  0
    2.3444    0.1756    0.0000 H   0  0  0  0  0  0  0  0  0  0  0  0
    3.0833    0.2248    0.0000 H   0  0  0  0  0  0  0  0  0  0  0  0
    3.6707    2.1552    0.0000 H   0  0  0  0  0  0  0  0  0  0  0  0
    2.9318    2.1059    0.0000 H   0  0  0  0  0  0  0  0  0  0  0  0
    4.7212    2.3132    0.0000 H   0  0  0  0  0  0  0  0  0  0  0  0
    6.2018    1.5851    0.0000 H   0  0  0  0  0  0  0  0  0  0  0  0
    4.9407   -0.9795    0.0000 H   0  0  0  0  0  0  0  0  0  0  0  0
    3.4600   -0.2514    0.0000 H   0  0  0  0  0  0  0  0  0  0  0  0
    2.1226   -0.5797    0.0000 H   0  0  0  0  0  0  0  0  0  0  0  0
    2.0874    0.8841    0.0000 H   0  0  0  0  0  0  0  0  0  0  0  0
    0.8207   -1.2588    0.0000 H   0  0  0  0  0  0  0  0  0  0  0  0
    1.6334   -1.2690    0.0000 H   0  0  0  0  0  0  0  0  0  0  0  0
   -0.4263   -0.9499    0.0000 H   0  0  0  0  0  0  0  0  0  0  0  0
    0.2370   -2.2732    0.0000 H   0  0  0  0  0  0  0  0  0  0  0  0
    1.0037   -2.6824    0.0000 H   0  0  0  0  0  0  0  0  0  0  0  0
    1.7114   -2.1780    0.0000 H   0  0  0  0  0  0  0  0  0  0  0  0
   -1.1834   -2.2269    0.0000 H   0  0  0  0  0  0  0  0  0  0  0  0
   -0.7154   -2.6192    0.0000 H   0  0  0  0  0  0  0  0  0  0  0  0
   -1.5511   -1.8480    0.0000 H   0  0  0  0  0  0  0  0  0  0  0  0
   -1.0043   -2.0410    0.0000 H   0  0  0  0  0  0  0  0  0  0  0  0
   -1.0558    0.4532    0.0000 H   0  0  0  0  0  0  0  0  0  0  0  0
  1  2  1  0  0  0  0
  1 35  1  0  0  0  0
  1 36  1  0  0  0  0
  1 37  1  0  0  0  0
  2  3  1  0  0  0  0
  2 38  1  0  0  0  0
  2 39  1  0  0  0  0
  3  4  1  0  0  0  0
  3 40  1  0  0  0  0
  3 41  1  0  0  0  0
  5  4  1  1  0  0  0
  4 42  1  0  0  0  0
  4 43  1  0  0  0  0
  5 33  1  6  0  0  0
  5  6  1  0  0  0  0
 29  5  1  0  0  0  0
  6  7  2  0  0  0  0
  6  8  1  0  0  0  0
  9  8  1  0  0  0  0
  9 10  1  0  0  0  0
 30  9  1  0  0  0  0
  9 44  1  1  0  0  0
 11 10  1  0  0  0  0
 11 12  1  1  0  0  0
 11 22  1  0  0  0  0
 11 32  1  0  0  0  0
 12 13  1  0  0  0  0
 12 45  1  0  0  0  0
 12 46  1  0  0  0  0
 13 14  1  0  0  0  0
 13 47  1  0  0  0  0
 13 48  1  0  0  0  0
 14 15  1  0  0  0  0
 14 49  1  0  0  0  0
 14 50  1  0  0  0  0
 15 16  1  0  0  0  0
 15 21  2  0  0  0  0
 16 17  2  0  0  0  0
 16 51  1  0  0  0  0
 17 18  1  0  0  0  0
 17 52  1  0  0  0  0
 18 19  1  0  0  0  0
 18 20  2  0  0  0  0
 20 21  1  0  0  0  0
 20 53  1  0  0  0  0
 21 54  1  0  0  0  0
 22 23  1  0  0  0  0
 22 55  1  0  0  0  0
 22 56  1  0  0  0  0
 24 23  1  0  0  0  0
 23 57  1  0  0  0  0
 23 58  1  0  0  0  0
 24 34  1  6  0  0  0
 24 25  1  0  0  0  0
 30 24  1  0  0  0  0
 25 26  1  0  0  0  0
 25 27  1  1  0  0  0
 25 59  1  6  0  0  0
 26 60  1  0  0  0  0
 26 61  1  0  0  0  0
 26 62  1  0  0  0  0
 27 28  1  0  0  0  0
 27 63  1  0  0  0  0
 27 64  1  0  0  0  0
 29 28  1  0  0  0  0
 28 65  1  0  0  0  0
 28 66  1  0  0  0  0
 30 29  1  0  0  0  0
 29 67  1  6  0  0  0
 30 31  1  6  0  0  0
 31 32  1  0  0  0  0
M  END
