
  Mrv171c004271813302D          

 54 57  0  0  0  0            999 V2000
   -2.1831   -2.8179    0.0000 C   0  0  0  0  0  0  0  0  0  0  0  0
   -1.6228   -2.2123    0.0000 C   0  0  0  0  0  0  0  0  0  0  0  0
   -1.8671   -1.4243    0.0000 C   0  0  0  0  0  0  0  0  0  0  0  0
   -1.3068   -0.8188    0.0000 C   0  0  0  0  0  0  0  0  0  0  0  0
   -1.5511   -0.0308    0.0000 C   0  0  0  0  0  0  0  0  0  0  0  0
   -0.9908    0.5748    0.0000 C   0  0  1  0  0  0  0  0  0  0  0  0
   -1.2794    1.3649    0.0000 C   0  0  0  0  0  0  0  0  0  0  0  0
   -2.0618    1.6264    0.0000 O   0  0  0  0  0  0  0  0  0  0  0  0
   -0.5742    1.8226    0.0000 O   0  0  0  0  0  0  0  0  0  0  0  0
    0.2406    1.5519    0.0000 C   0  0  2  0  0  0  0  0  0  0  0  0
    1.1733    1.3312    0.0000 O   0  0  0  0  0  0  0  0  0  0  0  0
    2.0053    1.5442    0.0000 C   0  0  1  0  0  0  0  0  0  0  0  0
    2.6908    2.0033    0.0000 C   0  0  0  0  0  0  0  0  0  0  0  0
    2.4911    0.8464    0.0000 C   0  0  0  0  0  0  0  0  0  0  0  0
    2.0023    0.1574    0.0000 C   0  0  0  0  0  0  0  0  0  0  0  0
    1.1448    0.1462    0.0000 C   0  0  1  0  0  0  0  0  0  0  0  0
    1.0284   -0.7011    0.0000 C   0  0  1  0  0  0  0  0  0  0  0  0
    1.7168   -1.1557    0.0000 C   0  0  0  0  0  0  0  0  0  0  0  0
    0.3092   -1.1323    0.0000 C   0  0  0  0  0  0  0  0  0  0  0  0
   -0.2543   -0.5128    0.0000 C   0  0  0  0  0  0  0  0  0  0  0  0
   -0.1582    0.3421    0.0000 C   0  0  2  0  0  0  0  0  0  0  0  0
    0.5842    0.8416    0.0000 C   0  0  1  0  0  0  0  0  0  0  0  0
    0.8227    1.7924    0.0000 O   0  0  0  0  0  0  0  0  0  0  0  0
    1.5489    2.2528    0.0000 O   0  0  0  0  0  0  0  0  0  0  0  0
   -0.7661   -0.2190    0.0000 H   0  0  0  0  0  0  0  0  0  0  0  0
    1.4959    0.8927    0.0000 H   0  0  0  0  0  0  0  0  0  0  0  0
   -2.7886   -2.2576    0.0000 H   0  0  0  0  0  0  0  0  0  0  0  0
   -2.7433   -3.4235    0.0000 H   0  0  0  0  0  0  0  0  0  0  0  0
   -1.5775   -3.3782    0.0000 H   0  0  0  0  0  0  0  0  0  0  0  0
   -0.9857   -2.7364    0.0000 H   0  0  0  0  0  0  0  0  0  0  0  0
   -0.8219   -2.0143    0.0000 H   0  0  0  0  0  0  0  0  0  0  0  0
   -2.5042   -0.9002    0.0000 H   0  0  0  0  0  0  0  0  0  0  0  0
   -2.6680   -1.6224    0.0000 H   0  0  0  0  0  0  0  0  0  0  0  0
   -0.6697   -1.3429    0.0000 H   0  0  0  0  0  0  0  0  0  0  0  0
   -0.5059   -0.6207    0.0000 H   0  0  0  0  0  0  0  0  0  0  0  0
   -2.1882    0.4934    0.0000 H   0  0  0  0  0  0  0  0  0  0  0  0
   -2.3520   -0.2288    0.0000 H   0  0  0  0  0  0  0  0  0  0  0  0
    0.2113    2.3764    0.0000 H   0  0  0  0  0  0  0  0  0  0  0  0
    3.1499    1.3178    0.0000 H   0  0  0  0  0  0  0  0  0  0  0  0
    3.3762    2.4624    0.0000 H   0  0  0  0  0  0  0  0  0  0  0  0
    2.2316    2.6887    0.0000 H   0  0  0  0  0  0  0  0  0  0  0  0
    2.7500    0.0631    0.0000 H   0  0  0  0  0  0  0  0  0  0  0  0
    3.2754    0.5907    0.0000 H   0  0  0  0  0  0  0  0  0  0  0  0
    1.5663   -0.5430    0.0000 H   0  0  0  0  0  0  0  0  0  0  0  0
    2.3569   -0.5875    0.0000 H   0  0  0  0  0  0  0  0  0  0  0  0
    0.3400   -0.2465    0.0000 H   0  0  0  0  0  0  0  0  0  0  0  0
    1.0047   -1.5722    0.0000 H   0  0  0  0  0  0  0  0  0  0  0  0
    1.7755   -1.9786    0.0000 H   0  0  0  0  0  0  0  0  0  0  0  0
    2.4809   -1.4670    0.0000 H   0  0  0  0  0  0  0  0  0  0  0  0
   -0.4205   -1.5173    0.0000 H   0  0  0  0  0  0  0  0  0  0  0  0
    0.2768   -1.9566    0.0000 H   0  0  0  0  0  0  0  0  0  0  0  0
   -0.6271    0.2232    0.0000 H   0  0  0  0  0  0  0  0  0  0  0  0
    0.5533   -0.6813    0.0000 H   0  0  0  0  0  0  0  0  0  0  0  0
   -0.2895    1.1566    0.0000 H   0  0  0  0  0  0  0  0  0  0  0  0
  1  2  1  0  0  0  0
  1 27  1  0  0  0  0
  1 28  1  0  0  0  0
  1 29  1  0  0  0  0
  2  3  1  0  0  0  0
  2 30  1  0  0  0  0
  2 31  1  0  0  0  0
  3  4  1  0  0  0  0
  3 32  1  0  0  0  0
  3 33  1  0  0  0  0
  4  5  1  0  0  0  0
  4 34  1  0  0  0  0
  4 35  1  0  0  0  0
  6  5  1  1  0  0  0
  5 36  1  0  0  0  0
  5 37  1  0  0  0  0
  6 25  1  6  0  0  0
  6  7  1  0  0  0  0
 21  6  1  0  0  0  0
  7  8  2  0  0  0  0
  7  9  1  0  0  0  0
 10  9  1  0  0  0  0
 10 11  1  0  0  0  0
 22 10  1  0  0  0  0
 10 38  1  1  0  0  0
 12 11  1  0  0  0  0
 12 13  1  1  0  0  0
 12 14  1  0  0  0  0
 12 24  1  0  0  0  0
 13 39  1  0  0  0  0
 13 40  1  0  0  0  0
 13 41  1  0  0  0  0
 14 15  1  0  0  0  0
 14 42  1  0  0  0  0
 14 43  1  0  0  0  0
 16 15  1  0  0  0  0
 15 44  1  0  0  0  0
 15 45  1  0  0  0  0
 16 26  1  6  0  0  0
 16 17  1  0  0  0  0
 22 16  1  0  0  0  0
 17 18  1  0  0  0  0
 17 19  1  1  0  0  0
 17 46  1  6  0  0  0
 18 47  1  0  0  0  0
 18 48  1  0  0  0  0
 18 49  1  0  0  0  0
 19 20  1  0  0  0  0
 19 50  1  0  0  0  0
 19 51  1  0  0  0  0
 21 20  1  0  0  0  0
 20 52  1  0  0  0  0
 20 53  1  0  0  0  0
 22 21  1  0  0  0  0
 21 54  1  6  0  0  0
 22 23  1  6  0  0  0
 23 24  1  0  0  0  0
M  END
