
  Mrv171c004271813302D          

 51 54  0  0  0  0            999 V2000
   -2.1586   -1.6973    0.0000 C   0  0  0  0  0  0  0  0  0  0  0  0
   -1.5984   -1.0917    0.0000 C   0  0  0  0  0  0  0  0  0  0  0  0
   -0.7938   -1.2741    0.0000 C   0  0  0  0  0  0  0  0  0  0  0  0
   -1.8426   -0.3037    0.0000 C   0  0  0  0  0  0  0  0  0  0  0  0
   -1.2824    0.3019    0.0000 C   0  0  1  0  0  0  0  0  0  0  0  0
   -1.5709    1.0920    0.0000 C   0  0  0  0  0  0  0  0  0  0  0  0
   -2.3534    1.3534    0.0000 O   0  0  0  0  0  0  0  0  0  0  0  0
   -0.8658    1.5496    0.0000 O   0  0  0  0  0  0  0  0  0  0  0  0
   -0.0509    1.2790    0.0000 C   0  0  2  0  0  0  0  0  0  0  0  0
    0.8817    1.0583    0.0000 O   0  0  0  0  0  0  0  0  0  0  0  0
    1.7138    1.2712    0.0000 C   0  0  1  0  0  0  0  0  0  0  0  0
    2.3992    1.7303    0.0000 C   0  0  0  0  0  0  0  0  0  0  0  0
    2.1995    0.5734    0.0000 C   0  0  0  0  0  0  0  0  0  0  0  0
    1.7107   -0.1156    0.0000 C   0  0  0  0  0  0  0  0  0  0  0  0
    0.8533   -0.1268    0.0000 C   0  0  1  0  0  0  0  0  0  0  0  0
    0.7368   -0.9741    0.0000 C   0  0  1  0  0  0  0  0  0  0  0  0
    1.4253   -1.4287    0.0000 C   0  0  0  0  0  0  0  0  0  0  0  0
    0.0176   -1.4052    0.0000 C   0  0  0  0  0  0  0  0  0  0  0  0
   -0.5459   -0.7857    0.0000 C   0  0  0  0  0  0  0  0  0  0  0  0
   -0.4497    0.0692    0.0000 C   0  0  2  0  0  0  0  0  0  0  0  0
    0.2926    0.5687    0.0000 C   0  0  1  0  0  0  0  0  0  0  0  0
    0.5312    1.5195    0.0000 O   0  0  0  0  0  0  0  0  0  0  0  0
    1.2574    1.9798    0.0000 O   0  0  0  0  0  0  0  0  0  0  0  0
   -0.7221    0.9074    0.0000 H   0  0  0  0  0  0  0  0  0  0  0  0
    1.2044    0.6198    0.0000 H   0  0  0  0  0  0  0  0  0  0  0  0
   -2.7642   -1.1370    0.0000 H   0  0  0  0  0  0  0  0  0  0  0  0
   -2.7189   -2.3028    0.0000 H   0  0  0  0  0  0  0  0  0  0  0  0
   -1.5531   -2.2576    0.0000 H   0  0  0  0  0  0  0  0  0  0  0  0
   -1.3541   -1.8797    0.0000 H   0  0  0  0  0  0  0  0  0  0  0  0
   -0.8165   -2.0988    0.0000 H   0  0  0  0  0  0  0  0  0  0  0  0
   -0.2676   -1.9096    0.0000 H   0  0  0  0  0  0  0  0  0  0  0  0
   -1.1445   -0.5274    0.0000 H   0  0  0  0  0  0  0  0  0  0  0  0
   -2.4798    0.2204    0.0000 H   0  0  0  0  0  0  0  0  0  0  0  0
   -2.6435   -0.5018    0.0000 H   0  0  0  0  0  0  0  0  0  0  0  0
   -0.0803    2.1035    0.0000 H   0  0  0  0  0  0  0  0  0  0  0  0
    2.8583    1.0449    0.0000 H   0  0  0  0  0  0  0  0  0  0  0  0
    3.0847    2.1894    0.0000 H   0  0  0  0  0  0  0  0  0  0  0  0
    1.9401    2.4158    0.0000 H   0  0  0  0  0  0  0  0  0  0  0  0
    2.4585   -0.2099    0.0000 H   0  0  0  0  0  0  0  0  0  0  0  0
    2.9839    0.3177    0.0000 H   0  0  0  0  0  0  0  0  0  0  0  0
    1.2748   -0.8160    0.0000 H   0  0  0  0  0  0  0  0  0  0  0  0
    2.0654   -0.8605    0.0000 H   0  0  0  0  0  0  0  0  0  0  0  0
    0.0484   -0.5194    0.0000 H   0  0  0  0  0  0  0  0  0  0  0  0
    0.7131   -1.8452    0.0000 H   0  0  0  0  0  0  0  0  0  0  0  0
    1.4839   -2.2516    0.0000 H   0  0  0  0  0  0  0  0  0  0  0  0
    2.1893   -1.7399    0.0000 H   0  0  0  0  0  0  0  0  0  0  0  0
    0.0114   -2.2302    0.0000 H   0  0  0  0  0  0  0  0  0  0  0  0
    0.4129   -2.1294    0.0000 H   0  0  0  0  0  0  0  0  0  0  0  0
   -0.9599   -0.0721    0.0000 H   0  0  0  0  0  0  0  0  0  0  0  0
    0.2617   -0.9542    0.0000 H   0  0  0  0  0  0  0  0  0  0  0  0
    0.3674   -0.0444    0.0000 H   0  0  0  0  0  0  0  0  0  0  0  0
  1  2  1  0  0  0  0
  1 26  1  0  0  0  0
  1 27  1  0  0  0  0
  1 28  1  0  0  0  0
  2  3  1  0  0  0  0
  2  4  1  0  0  0  0
  2 29  1  0  0  0  0
  3 30  1  0  0  0  0
  3 31  1  0  0  0  0
  3 32  1  0  0  0  0
  5  4  1  0  0  0  0
  4 33  1  0  0  0  0
  4 34  1  0  0  0  0
  5 24  1  6  0  0  0
  5  6  1  1  0  0  0
 20  5  1  0  0  0  0
  6  7  2  0  0  0  0
  6  8  1  0  0  0  0
  9  8  1  0  0  0  0
  9 10  1  0  0  0  0
 21  9  1  0  0  0  0
  9 35  1  1  0  0  0
 11 10  1  0  0  0  0
 11 12  1  1  0  0  0
 11 13  1  0  0  0  0
 11 23  1  0  0  0  0
 12 36  1  0  0  0  0
 12 37  1  0  0  0  0
 12 38  1  0  0  0  0
 13 14  1  0  0  0  0
 13 39  1  0  0  0  0
 13 40  1  0  0  0  0
 15 14  1  0  0  0  0
 14 41  1  0  0  0  0
 14 42  1  0  0  0  0
 15 25  1  6  0  0  0
 15 16  1  0  0  0  0
 21 15  1  0  0  0  0
 16 17  1  0  0  0  0
 16 18  1  1  0  0  0
 16 43  1  6  0  0  0
 17 44  1  0  0  0  0
 17 45  1  0  0  0  0
 17 46  1  0  0  0  0
 18 19  1  0  0  0  0
 18 47  1  0  0  0  0
 18 48  1  0  0  0  0
 20 19  1  0  0  0  0
 19 49  1  0  0  0  0
 19 50  1  0  0  0  0
 21 20  1  0  0  0  0
 20 51  1  6  0  0  0
 21 22  1  6  0  0  0
 22 23  1  0  0  0  0
M  END
