
  Mrv171c004271813302D          

 42 45  0  0  0  0            999 V2000
    0.9832   -1.3004    0.0000 C   0  0  0  0  0  0  0  0  0  0  0  0
    0.2948   -0.8458    0.0000 C   0  0  1  0  0  0  0  0  0  0  0  0
   -0.4244   -1.2770    0.0000 C   0  0  0  0  0  0  0  0  0  0  0  0
   -0.9880   -0.6575    0.0000 C   0  0  0  0  0  0  0  0  0  0  0  0
   -0.8918    0.1974    0.0000 C   0  0  1  0  0  0  0  0  0  0  0  0
   -1.7244    0.4301    0.0000 C   0  0  1  0  0  0  0  0  0  0  0  0
   -2.2847   -0.1755    0.0000 C   0  0  0  0  0  0  0  0  0  0  0  0
   -2.0130    1.2202    0.0000 C   0  0  0  0  0  0  0  0  0  0  0  0
   -2.7955    1.4817    0.0000 O   0  0  0  0  0  0  0  0  0  0  0  0
   -1.3078    1.6779    0.0000 O   0  0  0  0  0  0  0  0  0  0  0  0
   -0.4930    1.4072    0.0000 C   0  0  2  0  0  0  0  0  0  0  0  0
    0.4397    1.1865    0.0000 O   0  0  0  0  0  0  0  0  0  0  0  0
    1.2717    1.3995    0.0000 C   0  0  1  0  0  0  0  0  0  0  0  0
    1.9571    1.8586    0.0000 C   0  0  0  0  0  0  0  0  0  0  0  0
    1.7574    0.7017    0.0000 C   0  0  0  0  0  0  0  0  0  0  0  0
    1.2686    0.0127    0.0000 C   0  0  0  0  0  0  0  0  0  0  0  0
    0.4112    0.0015    0.0000 C   0  0  2  0  0  0  0  0  0  0  0  0
   -0.1495    0.6969    0.0000 C   0  0  1  0  0  0  0  0  0  0  0  0
    0.0891    1.6477    0.0000 O   0  0  0  0  0  0  0  0  0  0  0  0
    0.8153    2.1081    0.0000 O   0  0  0  0  0  0  0  0  0  0  0  0
   -1.4997   -0.3637    0.0000 H   0  0  0  0  0  0  0  0  0  0  0  0
   -0.3837   -0.2194    0.0000 H   0  0  0  0  0  0  0  0  0  0  0  0
    0.5286   -1.9889    0.0000 H   0  0  0  0  0  0  0  0  0  0  0  0
    1.6716   -1.7551    0.0000 H   0  0  0  0  0  0  0  0  0  0  0  0
    1.4378   -0.6120    0.0000 H   0  0  0  0  0  0  0  0  0  0  0  0
    1.0463   -0.5054    0.0000 H   0  0  0  0  0  0  0  0  0  0  0  0
   -0.9223   -1.9348    0.0000 H   0  0  0  0  0  0  0  0  0  0  0  0
   -0.1374   -2.0505    0.0000 H   0  0  0  0  0  0  0  0  0  0  0  0
   -1.8060   -0.5501    0.0000 H   0  0  0  0  0  0  0  0  0  0  0  0
   -1.5879   -1.2238    0.0000 H   0  0  0  0  0  0  0  0  0  0  0  0
   -1.0232    1.0119    0.0000 H   0  0  0  0  0  0  0  0  0  0  0  0
   -2.6452    0.5666    0.0000 H   0  0  0  0  0  0  0  0  0  0  0  0
   -3.1071   -0.2415    0.0000 H   0  0  0  0  0  0  0  0  0  0  0  0
   -2.5222   -0.9655    0.0000 H   0  0  0  0  0  0  0  0  0  0  0  0
   -0.5223    2.2317    0.0000 H   0  0  0  0  0  0  0  0  0  0  0  0
    2.4162    1.1731    0.0000 H   0  0  0  0  0  0  0  0  0  0  0  0
    2.6426    2.3177    0.0000 H   0  0  0  0  0  0  0  0  0  0  0  0
    1.4980    2.5440    0.0000 H   0  0  0  0  0  0  0  0  0  0  0  0
    2.0164   -0.0816    0.0000 H   0  0  0  0  0  0  0  0  0  0  0  0
    2.5418    0.4460    0.0000 H   0  0  0  0  0  0  0  0  0  0  0  0
    1.1727    0.8321    0.0000 H   0  0  0  0  0  0  0  0  0  0  0  0
    0.6487    0.5570    0.0000 H   0  0  0  0  0  0  0  0  0  0  0  0
  2  1  1  1  0  0  0
  1 23  1  0  0  0  0
  1 24  1  0  0  0  0
  1 25  1  0  0  0  0
  2  3  1  0  0  0  0
 17  2  1  0  0  0  0
  2 26  1  6  0  0  0
  3  4  1  0  0  0  0
  3 27  1  0  0  0  0
  3 28  1  0  0  0  0
  5  4  1  0  0  0  0
  4 29  1  0  0  0  0
  4 30  1  0  0  0  0
  5  6  1  0  0  0  0
 18  5  1  0  0  0  0
  5 31  1  6  0  0  0
  6 21  1  6  0  0  0
  6  7  1  1  0  0  0
  6  8  1  0  0  0  0
  7 32  1  0  0  0  0
  7 33  1  0  0  0  0
  7 34  1  0  0  0  0
  8  9  2  0  0  0  0
  8 10  1  0  0  0  0
 11 10  1  0  0  0  0
 11 12  1  0  0  0  0
 18 11  1  0  0  0  0
 11 35  1  1  0  0  0
 13 12  1  0  0  0  0
 13 14  1  1  0  0  0
 13 15  1  0  0  0  0
 13 20  1  0  0  0  0
 14 36  1  0  0  0  0
 14 37  1  0  0  0  0
 14 38  1  0  0  0  0
 15 16  1  0  0  0  0
 15 39  1  0  0  0  0
 15 40  1  0  0  0  0
 17 16  1  0  0  0  0
 16 41  1  0  0  0  0
 16 42  1  0  0  0  0
 17 22  1  6  0  0  0
 18 17  1  0  0  0  0
 18 19  1  6  0  0  0
 19 20  1  0  0  0  0
M  END
