
  Mrv171c004271813302D          

 63 66  0  0  0  0            999 V2000
   -2.3684   -3.0077    0.0000 C   0  0  0  0  0  0  0  0  0  0  0  0
   -2.6127   -2.2197    0.0000 C   0  0  0  0  0  0  0  0  0  0  0  0
   -2.0524   -1.6142    0.0000 C   0  0  0  0  0  0  0  0  0  0  0  0
   -2.2967   -0.8262    0.0000 C   0  0  0  0  0  0  0  0  0  0  0  0
   -1.7365   -0.2206    0.0000 C   0  0  1  0  0  0  0  0  0  0  0  0
   -2.0250    0.5695    0.0000 C   0  0  0  0  0  0  0  0  0  0  0  0
   -2.8075    0.8310    0.0000 O   0  0  0  0  0  0  0  0  0  0  0  0
   -1.3199    1.0271    0.0000 O   0  0  0  0  0  0  0  0  0  0  0  0
   -0.5050    0.7565    0.0000 C   0  0  2  0  0  0  0  0  0  0  0  0
    0.4276    0.5358    0.0000 O   0  0  0  0  0  0  0  0  0  0  0  0
    1.2597    0.7488    0.0000 C   0  0  1  0  0  0  0  0  0  0  0  0
    1.9451    1.2079    0.0000 C   0  0  0  0  0  0  0  0  0  0  0  0
    1.8902    2.0310    0.0000 C   0  0  0  0  0  0  0  0  0  0  0  0
    2.5757    2.4902    0.0000 C   0  0  0  0  0  0  0  0  0  0  0  0
    3.3160    2.1261    0.0000 O   0  0  0  0  0  0  0  0  0  0  0  0
    2.5208    3.3133    0.0000 O   0  0  0  0  0  0  0  0  0  0  0  0
    3.2063    3.7724    0.0000 C   0  0  0  0  0  0  0  0  0  0  0  0
    3.1514    4.5956    0.0000 C   0  0  0  0  0  0  0  0  0  0  0  0
    1.7454    0.0510    0.0000 C   0  0  0  0  0  0  0  0  0  0  0  0
    1.2566   -0.6380    0.0000 C   0  0  0  0  0  0  0  0  0  0  0  0
    0.3992   -0.6492    0.0000 C   0  0  1  0  0  0  0  0  0  0  0  0
    0.2828   -1.4965    0.0000 C   0  0  1  0  0  0  0  0  0  0  0  0
    0.9712   -1.9511    0.0000 C   0  0  0  0  0  0  0  0  0  0  0  0
   -0.4364   -1.9277    0.0000 C   0  0  0  0  0  0  0  0  0  0  0  0
   -1.0000   -1.3082    0.0000 C   0  0  0  0  0  0  0  0  0  0  0  0
   -0.9038   -0.4533    0.0000 C   0  0  2  0  0  0  0  0  0  0  0  0
   -0.1615    0.0462    0.0000 C   0  0  1  0  0  0  0  0  0  0  0  0
    0.0771    0.9970    0.0000 O   0  0  0  0  0  0  0  0  0  0  0  0
    0.8033    1.4574    0.0000 O   0  0  0  0  0  0  0  0  0  0  0  0
   -1.5117   -1.0144    0.0000 H   0  0  0  0  0  0  0  0  0  0  0  0
    0.7503    0.0973    0.0000 H   0  0  0  0  0  0  0  0  0  0  0  0
   -3.1564   -3.2520    0.0000 H   0  0  0  0  0  0  0  0  0  0  0  0
   -2.1241   -3.7957    0.0000 H   0  0  0  0  0  0  0  0  0  0  0  0
   -1.5804   -2.7634    0.0000 H   0  0  0  0  0  0  0  0  0  0  0  0
   -3.2498   -1.6956    0.0000 H   0  0  0  0  0  0  0  0  0  0  0  0
   -3.4136   -2.4178    0.0000 H   0  0  0  0  0  0  0  0  0  0  0  0
   -1.4153   -2.1383    0.0000 H   0  0  0  0  0  0  0  0  0  0  0  0
   -1.2516   -1.4161    0.0000 H   0  0  0  0  0  0  0  0  0  0  0  0
   -2.9339   -0.3020    0.0000 H   0  0  0  0  0  0  0  0  0  0  0  0
   -3.0976   -1.0242    0.0000 H   0  0  0  0  0  0  0  0  0  0  0  0
   -0.5344    1.5810    0.0000 H   0  0  0  0  0  0  0  0  0  0  0  0
    2.4433    0.5503    0.0000 H   0  0  0  0  0  0  0  0  0  0  0  0
    2.7701    1.2148    0.0000 H   0  0  0  0  0  0  0  0  0  0  0  0
    1.3921    2.6886    0.0000 H   0  0  0  0  0  0  0  0  0  0  0  0
    1.0653    2.0241    0.0000 H   0  0  0  0  0  0  0  0  0  0  0  0
    3.7045    3.1149    0.0000 H   0  0  0  0  0  0  0  0  0  0  0  0
    4.0312    3.7794    0.0000 H   0  0  0  0  0  0  0  0  0  0  0  0
    3.9746    4.6505    0.0000 H   0  0  0  0  0  0  0  0  0  0  0  0
    3.0965    5.4188    0.0000 H   0  0  0  0  0  0  0  0  0  0  0  0
    2.3282    4.5407    0.0000 H   0  0  0  0  0  0  0  0  0  0  0  0
    2.0044   -0.7323    0.0000 H   0  0  0  0  0  0  0  0  0  0  0  0
    2.5298   -0.2048    0.0000 H   0  0  0  0  0  0  0  0  0  0  0  0
    0.8207   -1.3385    0.0000 H   0  0  0  0  0  0  0  0  0  0  0  0
    1.6113   -1.3829    0.0000 H   0  0  0  0  0  0  0  0  0  0  0  0
   -0.4057   -1.0419    0.0000 H   0  0  0  0  0  0  0  0  0  0  0  0
    0.2590   -2.3676    0.0000 H   0  0  0  0  0  0  0  0  0  0  0  0
    1.0299   -2.7741    0.0000 H   0  0  0  0  0  0  0  0  0  0  0  0
    1.7352   -2.2624    0.0000 H   0  0  0  0  0  0  0  0  0  0  0  0
   -1.1661   -2.3127    0.0000 H   0  0  0  0  0  0  0  0  0  0  0  0
   -0.4688   -2.7521    0.0000 H   0  0  0  0  0  0  0  0  0  0  0  0
   -1.3728   -0.5722    0.0000 H   0  0  0  0  0  0  0  0  0  0  0  0
   -0.1924   -1.4767    0.0000 H   0  0  0  0  0  0  0  0  0  0  0  0
   -1.0352    0.3612    0.0000 H   0  0  0  0  0  0  0  0  0  0  0  0
  1  2  1  0  0  0  0
  1 32  1  0  0  0  0
  1 33  1  0  0  0  0
  1 34  1  0  0  0  0
  2  3  1  0  0  0  0
  2 35  1  0  0  0  0
  2 36  1  0  0  0  0
  3  4  1  0  0  0  0
  3 37  1  0  0  0  0
  3 38  1  0  0  0  0
  5  4  1  1  0  0  0
  4 39  1  0  0  0  0
  4 40  1  0  0  0  0
  5 30  1  6  0  0  0
  5  6  1  0  0  0  0
 26  5  1  0  0  0  0
  6  7  2  0  0  0  0
  6  8  1  0  0  0  0
  9  8  1  0  0  0  0
  9 10  1  0  0  0  0
 27  9  1  0  0  0  0
  9 41  1  1  0  0  0
 11 10  1  0  0  0  0
 11 12  1  1  0  0  0
 11 19  1  0  0  0  0
 11 29  1  0  0  0  0
 12 13  1  0  0  0  0
 12 42  1  0  0  0  0
 12 43  1  0  0  0  0
 13 14  1  0  0  0  0
 13 44  1  0  0  0  0
 13 45  1  0  0  0  0
 14 15  2  0  0  0  0
 14 16  1  0  0  0  0
 16 17  1  0  0  0  0
 17 18  1  0  0  0  0
 17 46  1  0  0  0  0
 17 47  1  0  0  0  0
 18 48  1  0  0  0  0
 18 49  1  0  0  0  0
 18 50  1  0  0  0  0
 19 20  1  0  0  0  0
 19 51  1  0  0  0  0
 19 52  1  0  0  0  0
 21 20  1  0  0  0  0
 20 53  1  0  0  0  0
 20 54  1  0  0  0  0
 21 31  1  6  0  0  0
 21 22  1  0  0  0  0
 27 21  1  0  0  0  0
 22 23  1  0  0  0  0
 22 24  1  1  0  0  0
 22 55  1  6  0  0  0
 23 56  1  0  0  0  0
 23 57  1  0  0  0  0
 23 58  1  0  0  0  0
 24 25  1  0  0  0  0
 24 59  1  0  0  0  0
 24 60  1  0  0  0  0
 26 25  1  0  0  0  0
 25 61  1  0  0  0  0
 25 62  1  0  0  0  0
 27 26  1  0  0  0  0
 26 63  1  6  0  0  0
 27 28  1  6  0  0  0
 28 29  1  0  0  0  0
M  END
