
  Mrv171c004271813302D          

 41 43  0  0  0  0            999 V2000
   -1.7148   -0.1882    0.0000 C   0  0  0  0  0  0  0  0  0  0  0  0
   -0.9812    0.1891    0.0000 C   0  0  1  0  0  0  0  0  0  0  0  0
   -0.9946    1.0532    0.0000 C   0  0  0  0  0  0  0  0  0  0  0  0
   -0.2777    1.5269    0.0000 C   0  0  0  0  0  0  0  0  0  0  0  0
    0.4666    1.0534    0.0000 C   0  0  2  0  0  0  0  0  0  0  0  0
    1.1962    1.4384    0.0000 C   0  0  1  0  0  0  0  0  0  0  0  0
    1.2275    2.2628    0.0000 C   0  0  0  0  0  0  0  0  0  0  0  0
    1.8945    0.9991    0.0000 C   0  0  0  0  0  0  0  0  0  0  0  0
    2.6241    1.3842    0.0000 O   0  0  0  0  0  0  0  0  0  0  0  0
    1.8631    0.1747    0.0000 O   0  0  0  0  0  0  0  0  0  0  0  0
    1.1335   -0.2104    0.0000 C   0  0  1  0  0  0  0  0  0  0  0  0
    1.1022   -1.0348    0.0000 O   0  0  0  0  0  0  0  0  0  0  0  0
    0.3726   -1.4198    0.0000 C   0  0  0  0  0  0  0  0  0  0  0  0
    0.8785   -2.0715    0.0000 C   0  0  0  0  0  0  0  0  0  0  0  0
   -0.1814   -2.0312    0.0000 C   0  0  0  0  0  0  0  0  0  0  0  0
   -0.3257   -0.9805    0.0000 O   0  0  0  0  0  0  0  0  0  0  0  0
   -0.3203   -0.0423    0.0000 O   0  0  0  0  0  0  0  0  0  0  0  0
    0.4352    0.2290    0.0000 C   0  0  1  0  0  0  0  0  0  0  0  0
   -0.2281   -0.3673    0.0000 C   0  0  0  0  0  0  0  0  0  0  0  0
    0.4979    1.8778    0.0000 H   0  0  0  0  0  0  0  0  0  0  0  0
   -2.0922    0.5454    0.0000 H   0  0  0  0  0  0  0  0  0  0  0  0
   -2.4485   -0.5656    0.0000 H   0  0  0  0  0  0  0  0  0  0  0  0
   -1.3375   -0.9219    0.0000 H   0  0  0  0  0  0  0  0  0  0  0  0
   -1.0476   -0.6332    0.0000 H   0  0  0  0  0  0  0  0  0  0  0  0
   -1.4771    1.7225    0.0000 H   0  0  0  0  0  0  0  0  0  0  0  0
   -1.8194    1.0741    0.0000 H   0  0  0  0  0  0  0  0  0  0  0  0
    0.0947    2.2630    0.0000 H   0  0  0  0  0  0  0  0  0  0  0  0
   -0.6626    2.2565    0.0000 H   0  0  0  0  0  0  0  0  0  0  0  0
    1.1648    0.6140    0.0000 H   0  0  0  0  0  0  0  0  0  0  0  0
    2.0157    2.0192    0.0000 H   0  0  0  0  0  0  0  0  0  0  0  0
    1.6669    2.9611    0.0000 H   0  0  0  0  0  0  0  0  0  0  0  0
    0.6667    2.8679    0.0000 H   0  0  0  0  0  0  0  0  0  0  0  0
    0.4039   -0.5954    0.0000 H   0  0  0  0  0  0  0  0  0  0  0  0
    0.2268   -2.5774    0.0000 H   0  0  0  0  0  0  0  0  0  0  0  0
    1.3844   -2.7232    0.0000 H   0  0  0  0  0  0  0  0  0  0  0  0
    1.5301   -1.5656    0.0000 H   0  0  0  0  0  0  0  0  0  0  0  0
   -0.4979   -1.2694    0.0000 H   0  0  0  0  0  0  0  0  0  0  0  0
   -1.0054   -1.9923    0.0000 H   0  0  0  0  0  0  0  0  0  0  0  0
   -0.5683   -2.7599    0.0000 H   0  0  0  0  0  0  0  0  0  0  0  0
    0.1913   -1.0778    0.0000 H   0  0  0  0  0  0  0  0  0  0  0  0
    0.5816   -0.2092    0.0000 H   0  0  0  0  0  0  0  0  0  0  0  0
  2  1  1  1  0  0  0
  1 21  1  0  0  0  0
  1 22  1  0  0  0  0
  1 23  1  0  0  0  0
  2  3  1  0  0  0  0
  2 19  1  0  0  0  0
  2 24  1  6  0  0  0
  3  4  1  0  0  0  0
  3 25  1  0  0  0  0
  3 26  1  0  0  0  0
  5  4  1  0  0  0  0
  4 27  1  0  0  0  0
  4 28  1  0  0  0  0
  5  6  1  0  0  0  0
  5 18  1  0  0  0  0
  5 29  1  1  0  0  0
  6 20  1  6  0  0  0
  6  7  1  0  0  0  0
  6  8  1  0  0  0  0
  7 30  1  0  0  0  0
  7 31  1  0  0  0  0
  7 32  1  0  0  0  0
  8  9  2  0  0  0  0
  8 10  1  0  0  0  0
 11 10  1  0  0  0  0
 11 12  1  0  0  0  0
 18 11  1  0  0  0  0
 11 33  1  6  0  0  0
 12 13  1  0  0  0  0
 13 14  1  0  0  0  0
 13 15  1  0  0  0  0
 13 16  1  0  0  0  0
 14 34  1  0  0  0  0
 14 35  1  0  0  0  0
 14 36  1  0  0  0  0
 15 37  1  0  0  0  0
 15 38  1  0  0  0  0
 15 39  1  0  0  0  0
 16 17  1  0  0  0  0
 18 17  1  1  0  0  0
 18 19  1  0  0  0  0
 19 40  1  0  0  0  0
 19 41  1  0  0  0  0
M  END
