
  Mrv171c004271813302D          

 38 41  0  0  0  0            999 V2000
    0.4912   -1.3288    0.0000 C   0  0  0  0  0  0  0  0  0  0  0  0
   -0.1972   -0.8742    0.0000 C   0  0  1  0  0  0  0  0  0  0  0  0
   -0.9164   -1.3054    0.0000 C   0  0  0  0  0  0  0  0  0  0  0  0
   -1.4800   -0.6858    0.0000 C   0  0  0  0  0  0  0  0  0  0  0  0
   -1.3838    0.1691    0.0000 C   0  0  1  0  0  0  0  0  0  0  0  0
   -2.2164    0.4017    0.0000 C   0  0  0  0  0  0  0  0  0  0  0  0
   -2.7767   -0.2038    0.0000 O   0  0  0  0  0  0  0  0  0  0  0  0
   -2.5050    1.1919    0.0000 C   0  0  0  0  0  0  0  0  0  0  0  0
   -3.2875    1.4533    0.0000 O   0  0  0  0  0  0  0  0  0  0  0  0
   -1.7998    1.6495    0.0000 O   0  0  0  0  0  0  0  0  0  0  0  0
   -0.9850    1.3789    0.0000 C   0  0  2  0  0  0  0  0  0  0  0  0
   -0.0523    1.1582    0.0000 O   0  0  0  0  0  0  0  0  0  0  0  0
    0.7797    1.3711    0.0000 C   0  0  1  0  0  0  0  0  0  0  0  0
    1.4651    1.8302    0.0000 C   0  0  0  0  0  0  0  0  0  0  0  0
    1.2655    0.6733    0.0000 C   0  0  0  0  0  0  0  0  0  0  0  0
    0.7767   -0.0157    0.0000 C   0  0  0  0  0  0  0  0  0  0  0  0
   -0.0808   -0.0269    0.0000 C   0  0  2  0  0  0  0  0  0  0  0  0
   -0.6415    0.6685    0.0000 C   0  0  1  0  0  0  0  0  0  0  0  0
   -0.4029    1.6194    0.0000 O   0  0  0  0  0  0  0  0  0  0  0  0
    0.3233    2.0797    0.0000 O   0  0  0  0  0  0  0  0  0  0  0  0
   -0.8757   -0.2477    0.0000 H   0  0  0  0  0  0  0  0  0  0  0  0
    0.0366   -2.0172    0.0000 H   0  0  0  0  0  0  0  0  0  0  0  0
    1.1796   -1.7834    0.0000 H   0  0  0  0  0  0  0  0  0  0  0  0
    0.9458   -0.6404    0.0000 H   0  0  0  0  0  0  0  0  0  0  0  0
    0.5543   -0.5338    0.0000 H   0  0  0  0  0  0  0  0  0  0  0  0
   -1.4143   -1.9632    0.0000 H   0  0  0  0  0  0  0  0  0  0  0  0
   -0.6294   -2.0788    0.0000 H   0  0  0  0  0  0  0  0  0  0  0  0
   -2.2979   -0.5785    0.0000 H   0  0  0  0  0  0  0  0  0  0  0  0
   -2.0799   -1.2521    0.0000 H   0  0  0  0  0  0  0  0  0  0  0  0
   -1.5151    0.9835    0.0000 H   0  0  0  0  0  0  0  0  0  0  0  0
   -1.0143    2.2033    0.0000 H   0  0  0  0  0  0  0  0  0  0  0  0
    1.9243    1.1448    0.0000 H   0  0  0  0  0  0  0  0  0  0  0  0
    2.1506    2.2893    0.0000 H   0  0  0  0  0  0  0  0  0  0  0  0
    1.0060    2.5157    0.0000 H   0  0  0  0  0  0  0  0  0  0  0  0
    1.5244   -0.1100    0.0000 H   0  0  0  0  0  0  0  0  0  0  0  0
    2.0498    0.4176    0.0000 H   0  0  0  0  0  0  0  0  0  0  0  0
    0.6807    0.8037    0.0000 H   0  0  0  0  0  0  0  0  0  0  0  0
    0.1567    0.5287    0.0000 H   0  0  0  0  0  0  0  0  0  0  0  0
  2  1  1  1  0  0  0
  1 22  1  0  0  0  0
  1 23  1  0  0  0  0
  1 24  1  0  0  0  0
  2  3  1  0  0  0  0
 17  2  1  0  0  0  0
  2 25  1  6  0  0  0
  3  4  1  0  0  0  0
  3 26  1  0  0  0  0
  3 27  1  0  0  0  0
  5  4  1  0  0  0  0
  4 28  1  0  0  0  0
  4 29  1  0  0  0  0
  5  6  1  0  0  0  0
 18  5  1  0  0  0  0
  5 30  1  6  0  0  0
  6  7  2  0  0  0  0
  6  8  1  0  0  0  0
  8  9  2  0  0  0  0
  8 10  1  0  0  0  0
 11 10  1  0  0  0  0
 11 12  1  0  0  0  0
 18 11  1  0  0  0  0
 11 31  1  1  0  0  0
 13 12  1  0  0  0  0
 13 14  1  1  0  0  0
 13 15  1  0  0  0  0
 13 20  1  0  0  0  0
 14 32  1  0  0  0  0
 14 33  1  0  0  0  0
 14 34  1  0  0  0  0
 15 16  1  0  0  0  0
 15 35  1  0  0  0  0
 15 36  1  0  0  0  0
 17 16  1  0  0  0  0
 16 37  1  0  0  0  0
 16 38  1  0  0  0  0
 17 21  1  6  0  0  0
 18 17  1  0  0  0  0
 18 19  1  6  0  0  0
 19 20  1  0  0  0  0
M  END
