
  Mrv171c004271813302D          

 58 62  0  0  0  0            999 V2000
    1.8748   -1.2132    0.0000 C   0  0  0  0  0  0  0  0  0  0  0  0
    1.1863   -0.7585    0.0000 C   0  0  1  0  0  0  0  0  0  0  0  0
    0.4671   -1.1897    0.0000 C   0  0  0  0  0  0  0  0  0  0  0  0
   -0.0964   -0.5702    0.0000 C   0  0  0  0  0  0  0  0  0  0  0  0
   -0.0002    0.2847    0.0000 C   0  0  1  0  0  0  0  0  0  0  0  0
   -0.8329    0.5174    0.0000 C   0  0  1  0  0  0  0  0  0  0  0  0
   -1.3931   -0.0882    0.0000 C   0  0  0  0  0  0  0  0  0  0  0  0
   -2.1977    0.0942    0.0000 C   0  0  0  0  0  0  0  0  0  0  0  0
   -2.7580   -0.5113    0.0000 C   0  0  0  0  0  0  0  0  0  0  0  0
   -3.5626   -0.3289    0.0000 C   0  0  0  0  0  0  0  0  0  0  0  0
   -4.1229   -0.9345    0.0000 C   0  0  0  0  0  0  0  0  0  0  0  0
   -4.9274   -0.7520    0.0000 C   0  0  0  0  0  0  0  0  0  0  0  0
   -5.1717    0.0360    0.0000 C   0  0  0  0  0  0  0  0  0  0  0  0
   -5.9763    0.2184    0.0000 Cl  0  0  0  0  0  0  0  0  0  0  0  0
   -4.6115    0.6415    0.0000 C   0  0  0  0  0  0  0  0  0  0  0  0
   -3.8069    0.4591    0.0000 C   0  0  0  0  0  0  0  0  0  0  0  0
   -1.1214    1.3075    0.0000 C   0  0  0  0  0  0  0  0  0  0  0  0
   -1.9039    1.5689    0.0000 O   0  0  0  0  0  0  0  0  0  0  0  0
   -0.4163    1.7651    0.0000 O   0  0  0  0  0  0  0  0  0  0  0  0
    0.3986    1.4945    0.0000 C   0  0  2  0  0  0  0  0  0  0  0  0
    1.3312    1.2738    0.0000 O   0  0  0  0  0  0  0  0  0  0  0  0
    2.1633    1.4867    0.0000 C   0  0  1  0  0  0  0  0  0  0  0  0
    2.8487    1.9458    0.0000 C   0  0  0  0  0  0  0  0  0  0  0  0
    2.6490    0.7890    0.0000 C   0  0  0  0  0  0  0  0  0  0  0  0
    2.1602    0.0999    0.0000 C   0  0  0  0  0  0  0  0  0  0  0  0
    1.3028    0.0887    0.0000 C   0  0  2  0  0  0  0  0  0  0  0  0
    0.7421    0.7842    0.0000 C   0  0  1  0  0  0  0  0  0  0  0  0
    0.9807    1.7350    0.0000 O   0  0  0  0  0  0  0  0  0  0  0  0
    1.7069    2.1954    0.0000 O   0  0  0  0  0  0  0  0  0  0  0  0
   -0.6082   -0.2764    0.0000 H   0  0  0  0  0  0  0  0  0  0  0  0
    0.5079   -0.1321    0.0000 H   0  0  0  0  0  0  0  0  0  0  0  0
    1.4201   -1.9016    0.0000 H   0  0  0  0  0  0  0  0  0  0  0  0
    2.5632   -1.6678    0.0000 H   0  0  0  0  0  0  0  0  0  0  0  0
    2.3294   -0.5247    0.0000 H   0  0  0  0  0  0  0  0  0  0  0  0
    1.9379   -0.4182    0.0000 H   0  0  0  0  0  0  0  0  0  0  0  0
   -0.0308   -1.8475    0.0000 H   0  0  0  0  0  0  0  0  0  0  0  0
    0.7541   -1.9632    0.0000 H   0  0  0  0  0  0  0  0  0  0  0  0
   -0.9144   -0.4629    0.0000 H   0  0  0  0  0  0  0  0  0  0  0  0
   -0.6963   -1.1365    0.0000 H   0  0  0  0  0  0  0  0  0  0  0  0
   -0.1316    1.0992    0.0000 H   0  0  0  0  0  0  0  0  0  0  0  0
   -1.7472   -0.8334    0.0000 H   0  0  0  0  0  0  0  0  0  0  0  0
   -1.6374    0.6998    0.0000 H   0  0  0  0  0  0  0  0  0  0  0  0
   -2.5751    0.8278    0.0000 H   0  0  0  0  0  0  0  0  0  0  0  0
   -2.9584    0.4136    0.0000 H   0  0  0  0  0  0  0  0  0  0  0  0
   -2.8933   -1.3252    0.0000 H   0  0  0  0  0  0  0  0  0  0  0  0
   -2.1860   -1.1059    0.0000 H   0  0  0  0  0  0  0  0  0  0  0  0
   -3.8786   -1.7225    0.0000 H   0  0  0  0  0  0  0  0  0  0  0  0
   -5.4877   -1.3576    0.0000 H   0  0  0  0  0  0  0  0  0  0  0  0
   -4.8557    1.4295    0.0000 H   0  0  0  0  0  0  0  0  0  0  0  0
   -3.6932    1.2762    0.0000 H   0  0  0  0  0  0  0  0  0  0  0  0
    0.3692    2.3190    0.0000 H   0  0  0  0  0  0  0  0  0  0  0  0
    3.3078    1.2604    0.0000 H   0  0  0  0  0  0  0  0  0  0  0  0
    3.5342    2.4050    0.0000 H   0  0  0  0  0  0  0  0  0  0  0  0
    2.3896    2.6313    0.0000 H   0  0  0  0  0  0  0  0  0  0  0  0
    2.9080    0.0057    0.0000 H   0  0  0  0  0  0  0  0  0  0  0  0
    3.4334    0.5332    0.0000 H   0  0  0  0  0  0  0  0  0  0  0  0
    2.0642    0.9193    0.0000 H   0  0  0  0  0  0  0  0  0  0  0  0
    1.5403    0.6443    0.0000 H   0  0  0  0  0  0  0  0  0  0  0  0
  2  1  1  1  0  0  0
  1 32  1  0  0  0  0
  1 33  1  0  0  0  0
  1 34  1  0  0  0  0
  2  3  1  0  0  0  0
 26  2  1  0  0  0  0
  2 35  1  6  0  0  0
  3  4  1  0  0  0  0
  3 36  1  0  0  0  0
  3 37  1  0  0  0  0
  5  4  1  0  0  0  0
  4 38  1  0  0  0  0
  4 39  1  0  0  0  0
  5  6  1  0  0  0  0
 27  5  1  0  0  0  0
  5 40  1  6  0  0  0
  6 30  1  6  0  0  0
  6  7  1  1  0  0  0
  6 17  1  0  0  0  0
  7  8  1  0  0  0  0
  7 41  1  0  0  0  0
  7 42  1  0  0  0  0
  8  9  1  0  0  0  0
  8 43  1  0  0  0  0
  8 44  1  0  0  0  0
  9 10  1  0  0  0  0
  9 45  1  0  0  0  0
  9 46  1  0  0  0  0
 10 11  1  0  0  0  0
 10 16  2  0  0  0  0
 11 12  2  0  0  0  0
 11 47  1  0  0  0  0
 12 13  1  0  0  0  0
 12 48  1  0  0  0  0
 13 14  1  0  0  0  0
 13 15  2  0  0  0  0
 15 16  1  0  0  0  0
 15 49  1  0  0  0  0
 16 50  1  0  0  0  0
 17 18  2  0  0  0  0
 17 19  1  0  0  0  0
 20 19  1  0  0  0  0
 20 21  1  0  0  0  0
 27 20  1  0  0  0  0
 20 51  1  1  0  0  0
 22 21  1  0  0  0  0
 22 23  1  1  0  0  0
 22 24  1  0  0  0  0
 22 29  1  0  0  0  0
 23 52  1  0  0  0  0
 23 53  1  0  0  0  0
 23 54  1  0  0  0  0
 24 25  1  0  0  0  0
 24 55  1  0  0  0  0
 24 56  1  0  0  0  0
 26 25  1  0  0  0  0
 25 57  1  0  0  0  0
 25 58  1  0  0  0  0
 26 31  1  6  0  0  0
 27 26  1  0  0  0  0
 27 28  1  6  0  0  0
 28 29  1  0  0  0  0
M  END
