
  Mrv171c004271813302D          

 49 52  0  0  0  0            999 V2000
   -2.3217    0.0108    0.0000 C   0  0  0  0  0  0  0  0  0  0  0  0
   -2.6103    0.8009    0.0000 C   0  0  0  0  0  0  0  0  0  0  0  0
   -1.9051    1.2586    0.0000 O   0  0  0  0  0  0  0  0  0  0  0  0
   -1.0903    0.9879    0.0000 C   0  0  2  0  0  0  0  0  0  0  0  0
   -0.1576    0.7672    0.0000 O   0  0  0  0  0  0  0  0  0  0  0  0
    0.6744    0.9802    0.0000 C   0  0  1  0  0  0  0  0  0  0  0  0
    1.3598    1.4393    0.0000 C   0  0  0  0  0  0  0  0  0  0  0  0
    2.1002    1.0752    0.0000 C   0  0  0  0  0  0  0  0  0  0  0  0
    2.7856    1.5344    0.0000 C   0  0  0  0  0  0  0  0  0  0  0  0
    2.1550    0.2521    0.0000 C   0  0  0  0  0  0  0  0  0  0  0  0
    1.1602    0.2824    0.0000 C   0  0  0  0  0  0  0  0  0  0  0  0
    0.6713   -0.4066    0.0000 C   0  0  0  0  0  0  0  0  0  0  0  0
   -0.1861   -0.4178    0.0000 C   0  0  1  0  0  0  0  0  0  0  0  0
   -0.3025   -1.2651    0.0000 C   0  0  1  0  0  0  0  0  0  0  0  0
    0.3859   -1.7197    0.0000 C   0  0  0  0  0  0  0  0  0  0  0  0
   -1.0217   -1.6963    0.0000 C   0  0  0  0  0  0  0  0  0  0  0  0
   -1.5853   -1.0768    0.0000 C   0  0  0  0  0  0  0  0  0  0  0  0
   -1.4891   -0.2218    0.0000 C   0  0  2  0  0  0  0  0  0  0  0  0
   -0.7468    0.2776    0.0000 C   0  0  1  0  0  0  0  0  0  0  0  0
   -0.5082    1.2284    0.0000 O   0  0  0  0  0  0  0  0  0  0  0  0
    0.2180    1.6888    0.0000 O   0  0  0  0  0  0  0  0  0  0  0  0
   -3.0910   -0.2874    0.0000 H   0  0  0  0  0  0  0  0  0  0  0  0
   -2.5594   -0.7792    0.0000 H   0  0  0  0  0  0  0  0  0  0  0  0
   -0.9810   -0.6386    0.0000 H   0  0  0  0  0  0  0  0  0  0  0  0
   -3.1725    1.4047    0.0000 H   0  0  0  0  0  0  0  0  0  0  0  0
   -3.4225    0.6564    0.0000 H   0  0  0  0  0  0  0  0  0  0  0  0
   -1.1196    1.8124    0.0000 H   0  0  0  0  0  0  0  0  0  0  0  0
    1.6802    2.1995    0.0000 H   0  0  0  0  0  0  0  0  0  0  0  0
    0.9414    2.1503    0.0000 H   0  0  0  0  0  0  0  0  0  0  0  0
    2.0453    1.8984    0.0000 H   0  0  0  0  0  0  0  0  0  0  0  0
    3.0517    0.7534    0.0000 H   0  0  0  0  0  0  0  0  0  0  0  0
    3.6088    1.5892    0.0000 H   0  0  0  0  0  0  0  0  0  0  0  0
    2.9457    2.3437    0.0000 H   0  0  0  0  0  0  0  0  0  0  0  0
    1.3319    0.1972    0.0000 H   0  0  0  0  0  0  0  0  0  0  0  0
    2.2099   -0.5711    0.0000 H   0  0  0  0  0  0  0  0  0  0  0  0
    2.9782    0.3070    0.0000 H   0  0  0  0  0  0  0  0  0  0  0  0
    1.6990    0.9072    0.0000 H   0  0  0  0  0  0  0  0  0  0  0  0
    1.3615   -0.5176    0.0000 H   0  0  0  0  0  0  0  0  0  0  0  0
    0.6110   -1.2294    0.0000 H   0  0  0  0  0  0  0  0  0  0  0  0
    0.2879    0.3239    0.0000 H   0  0  0  0  0  0  0  0  0  0  0  0
   -0.3205   -2.0899    0.0000 H   0  0  0  0  0  0  0  0  0  0  0  0
    0.2722   -2.5368    0.0000 H   0  0  0  0  0  0  0  0  0  0  0  0
    0.9843   -2.2876    0.0000 H   0  0  0  0  0  0  0  0  0  0  0  0
    1.1960   -1.5634    0.0000 H   0  0  0  0  0  0  0  0  0  0  0  0
   -1.7401   -2.1019    0.0000 H   0  0  0  0  0  0  0  0  0  0  0  0
   -1.2555   -2.4874    0.0000 H   0  0  0  0  0  0  0  0  0  0  0  0
   -2.4032   -0.9694    0.0000 H   0  0  0  0  0  0  0  0  0  0  0  0
   -2.1852   -1.6431    0.0000 H   0  0  0  0  0  0  0  0  0  0  0  0
   -1.6205    0.5926    0.0000 H   0  0  0  0  0  0  0  0  0  0  0  0
  1 22  1  0  0  0  0
  1 23  1  0  0  0  0
  1  2  1  0  0  0  0
 18  1  1  0  0  0  0
  2  3  1  0  0  0  0
  2 25  1  0  0  0  0
  2 26  1  0  0  0  0
  4  3  1  0  0  0  0
  4  5  1  0  0  0  0
 19  4  1  0  0  0  0
  4 27  1  1  0  0  0
  6  5  1  0  0  0  0
  6  7  1  1  0  0  0
  6 11  1  0  0  0  0
  6 21  1  0  0  0  0
  7  8  1  0  0  0  0
  7 28  1  0  0  0  0
  7 29  1  0  0  0  0
  8  9  1  0  0  0  0
  8 10  1  0  0  0  0
  8 30  1  0  0  0  0
  9 31  1  0  0  0  0
  9 32  1  0  0  0  0
  9 33  1  0  0  0  0
 10 34  1  0  0  0  0
 10 35  1  0  0  0  0
 10 36  1  0  0  0  0
 11 12  1  0  0  0  0
 11 37  1  0  0  0  0
 11 38  1  0  0  0  0
 13 12  1  0  0  0  0
 12 39  1  0  0  0  0
 12 40  1  0  0  0  0
 13 24  1  6  0  0  0
 13 14  1  0  0  0  0
 19 13  1  0  0  0  0
 14 15  1  1  0  0  0
 14 16  1  0  0  0  0
 14 41  1  6  0  0  0
 15 42  1  0  0  0  0
 15 43  1  0  0  0  0
 15 44  1  0  0  0  0
 16 17  1  0  0  0  0
 16 45  1  0  0  0  0
 16 46  1  0  0  0  0
 18 17  1  0  0  0  0
 17 47  1  0  0  0  0
 17 48  1  0  0  0  0
 19 18  1  0  0  0  0
 18 49  1  6  0  0  0
 19 20  1  6  0  0  0
 20 21  1  0  0  0  0
M  END
