
  Mrv171c004271813302D          

 42 45  0  0  0  0            999 V2000
    0.9836   -1.3002    0.0000 C   0  0  0  0  0  0  0  0  0  0  0  0
    0.2952   -0.8456    0.0000 C   0  0  1  0  0  0  0  0  0  0  0  0
   -0.4240   -1.2768    0.0000 C   0  0  0  0  0  0  0  0  0  0  0  0
   -0.9875   -0.6573    0.0000 C   0  0  0  0  0  0  0  0  0  0  0  0
   -0.8914    0.1977    0.0000 C   0  0  1  0  0  0  0  0  0  0  0  0
   -1.7240    0.4303    0.0000 C   0  0  1  0  0  0  0  0  0  0  0  0
   -2.2843   -0.1752    0.0000 C   0  0  0  0  0  0  0  0  0  0  0  0
   -2.0126    1.2204    0.0000 C   0  0  0  0  0  0  0  0  0  0  0  0
   -2.7950    1.4819    0.0000 O   0  0  0  0  0  0  0  0  0  0  0  0
   -1.3074    1.6781    0.0000 O   0  0  0  0  0  0  0  0  0  0  0  0
   -0.4926    1.4074    0.0000 C   0  0  2  0  0  0  0  0  0  0  0  0
    0.4401    1.1867    0.0000 O   0  0  0  0  0  0  0  0  0  0  0  0
    1.2721    1.3997    0.0000 C   0  0  1  0  0  0  0  0  0  0  0  0
    1.9576    1.8588    0.0000 C   0  0  0  0  0  0  0  0  0  0  0  0
    1.7579    0.7019    0.0000 C   0  0  0  0  0  0  0  0  0  0  0  0
    1.2691    0.0129    0.0000 C   0  0  0  0  0  0  0  0  0  0  0  0
    0.4116    0.0017    0.0000 C   0  0  2  0  0  0  0  0  0  0  0  0
   -0.1490    0.6971    0.0000 C   0  0  1  0  0  0  0  0  0  0  0  0
    0.0895    1.6479    0.0000 O   0  0  0  0  0  0  0  0  0  0  0  0
    0.8157    2.1083    0.0000 O   0  0  0  0  0  0  0  0  0  0  0  0
   -0.3833   -0.2191    0.0000 H   0  0  0  0  0  0  0  0  0  0  0  0
    0.5290   -1.9887    0.0000 H   0  0  0  0  0  0  0  0  0  0  0  0
    1.6721   -1.7548    0.0000 H   0  0  0  0  0  0  0  0  0  0  0  0
    1.4383   -0.6118    0.0000 H   0  0  0  0  0  0  0  0  0  0  0  0
    1.0467   -0.5052    0.0000 H   0  0  0  0  0  0  0  0  0  0  0  0
   -0.9219   -1.9346    0.0000 H   0  0  0  0  0  0  0  0  0  0  0  0
   -0.1370   -2.0502    0.0000 H   0  0  0  0  0  0  0  0  0  0  0  0
   -1.8055   -0.5499    0.0000 H   0  0  0  0  0  0  0  0  0  0  0  0
   -1.5875   -1.2236    0.0000 H   0  0  0  0  0  0  0  0  0  0  0  0
   -1.0227    1.0121    0.0000 H   0  0  0  0  0  0  0  0  0  0  0  0
   -1.4993   -0.3635    0.0000 H   0  0  0  0  0  0  0  0  0  0  0  0
   -2.6447    0.5668    0.0000 H   0  0  0  0  0  0  0  0  0  0  0  0
   -3.1066   -0.2413    0.0000 H   0  0  0  0  0  0  0  0  0  0  0  0
   -2.5218   -0.9653    0.0000 H   0  0  0  0  0  0  0  0  0  0  0  0
   -0.5219    2.2319    0.0000 H   0  0  0  0  0  0  0  0  0  0  0  0
    2.4167    1.1733    0.0000 H   0  0  0  0  0  0  0  0  0  0  0  0
    2.6430    2.3179    0.0000 H   0  0  0  0  0  0  0  0  0  0  0  0
    1.4985    2.5442    0.0000 H   0  0  0  0  0  0  0  0  0  0  0  0
    2.0169   -0.0814    0.0000 H   0  0  0  0  0  0  0  0  0  0  0  0
    2.5422    0.4462    0.0000 H   0  0  0  0  0  0  0  0  0  0  0  0
    1.1731    0.8323    0.0000 H   0  0  0  0  0  0  0  0  0  0  0  0
    0.6492    0.5572    0.0000 H   0  0  0  0  0  0  0  0  0  0  0  0
  2  1  1  1  0  0  0
  1 22  1  0  0  0  0
  1 23  1  0  0  0  0
  1 24  1  0  0  0  0
  2  3  1  0  0  0  0
 17  2  1  0  0  0  0
  2 25  1  6  0  0  0
  3  4  1  0  0  0  0
  3 26  1  0  0  0  0
  3 27  1  0  0  0  0
  5  4  1  0  0  0  0
  4 28  1  0  0  0  0
  4 29  1  0  0  0  0
  5  6  1  0  0  0  0
 18  5  1  0  0  0  0
  5 30  1  6  0  0  0
  6  7  1  1  0  0  0
  6  8  1  0  0  0  0
  6 31  1  6  0  0  0
  7 32  1  0  0  0  0
  7 33  1  0  0  0  0
  7 34  1  0  0  0  0
  8  9  2  0  0  0  0
  8 10  1  0  0  0  0
 11 10  1  0  0  0  0
 11 12  1  0  0  0  0
 18 11  1  0  0  0  0
 11 35  1  1  0  0  0
 13 12  1  0  0  0  0
 13 14  1  1  0  0  0
 13 15  1  0  0  0  0
 13 20  1  0  0  0  0
 14 36  1  0  0  0  0
 14 37  1  0  0  0  0
 14 38  1  0  0  0  0
 15 16  1  0  0  0  0
 15 39  1  0  0  0  0
 15 40  1  0  0  0  0
 17 16  1  0  0  0  0
 16 41  1  0  0  0  0
 16 42  1  0  0  0  0
 17 21  1  6  0  0  0
 18 17  1  0  0  0  0
 18 19  1  6  0  0  0
 19 20  1  0  0  0  0
M  END
