
  Mrv171c004271813302D          

 46 49  0  0  0  0            999 V2000
   -2.1863    0.0298    0.0000 C   0  0  0  0  0  0  0  0  0  0  0  0
   -2.4749    0.8199    0.0000 C   0  0  0  0  0  0  0  0  0  0  0  0
   -1.7697    1.2776    0.0000 O   0  0  0  0  0  0  0  0  0  0  0  0
   -0.9549    1.0069    0.0000 C   0  0  2  0  0  0  0  0  0  0  0  0
   -0.0222    0.7862    0.0000 O   0  0  0  0  0  0  0  0  0  0  0  0
    0.8098    0.9992    0.0000 C   0  0  1  0  0  0  0  0  0  0  0  0
    1.4952    1.4583    0.0000 C   0  0  0  0  0  0  0  0  0  0  0  0
    2.2356    1.0942    0.0000 C   0  0  0  0  0  0  0  0  0  0  0  0
    2.9210    1.5533    0.0000 C   0  0  0  0  0  0  0  0  0  0  0  0
    1.2956    0.3014    0.0000 C   0  0  0  0  0  0  0  0  0  0  0  0
    0.8068   -0.3876    0.0000 C   0  0  0  0  0  0  0  0  0  0  0  0
   -0.0507   -0.3988    0.0000 C   0  0  1  0  0  0  0  0  0  0  0  0
   -0.1671   -1.2461    0.0000 C   0  0  1  0  0  0  0  0  0  0  0  0
    0.5213   -1.7007    0.0000 C   0  0  0  0  0  0  0  0  0  0  0  0
   -0.8863   -1.6773    0.0000 C   0  0  0  0  0  0  0  0  0  0  0  0
   -1.4498   -1.0578    0.0000 C   0  0  0  0  0  0  0  0  0  0  0  0
   -1.3537   -0.2029    0.0000 C   0  0  2  0  0  0  0  0  0  0  0  0
   -0.6114    0.2966    0.0000 C   0  0  1  0  0  0  0  0  0  0  0  0
   -0.3728    1.2474    0.0000 O   0  0  0  0  0  0  0  0  0  0  0  0
    0.3534    1.7078    0.0000 O   0  0  0  0  0  0  0  0  0  0  0  0
   -2.9556   -0.2684    0.0000 H   0  0  0  0  0  0  0  0  0  0  0  0
   -2.4239   -0.7602    0.0000 H   0  0  0  0  0  0  0  0  0  0  0  0
    0.3004    0.3477    0.0000 H   0  0  0  0  0  0  0  0  0  0  0  0
   -3.0371    1.4237    0.0000 H   0  0  0  0  0  0  0  0  0  0  0  0
   -3.2871    0.6754    0.0000 H   0  0  0  0  0  0  0  0  0  0  0  0
   -0.9842    1.8314    0.0000 H   0  0  0  0  0  0  0  0  0  0  0  0
    1.8156    2.2185    0.0000 H   0  0  0  0  0  0  0  0  0  0  0  0
    1.0768    2.1693    0.0000 H   0  0  0  0  0  0  0  0  0  0  0  0
    1.9152    0.3340    0.0000 H   0  0  0  0  0  0  0  0  0  0  0  0
    2.6541    0.3832    0.0000 H   0  0  0  0  0  0  0  0  0  0  0  0
    3.3801    0.8679    0.0000 H   0  0  0  0  0  0  0  0  0  0  0  0
    3.6065    2.0125    0.0000 H   0  0  0  0  0  0  0  0  0  0  0  0
    2.4619    2.2388    0.0000 H   0  0  0  0  0  0  0  0  0  0  0  0
    1.6934   -0.4213    0.0000 H   0  0  0  0  0  0  0  0  0  0  0  0
    1.6582    1.0425    0.0000 H   0  0  0  0  0  0  0  0  0  0  0  0
    0.3914   -1.1004    0.0000 H   0  0  0  0  0  0  0  0  0  0  0  0
    1.2042   -1.1106    0.0000 H   0  0  0  0  0  0  0  0  0  0  0  0
   -0.8556   -0.7915    0.0000 H   0  0  0  0  0  0  0  0  0  0  0  0
   -0.1922   -2.1148    0.0000 H   0  0  0  0  0  0  0  0  0  0  0  0
    0.5745   -2.5240    0.0000 H   0  0  0  0  0  0  0  0  0  0  0  0
    1.2822   -2.0196    0.0000 H   0  0  0  0  0  0  0  0  0  0  0  0
   -1.6126   -2.0685    0.0000 H   0  0  0  0  0  0  0  0  0  0  0  0
   -1.1447   -2.4608    0.0000 H   0  0  0  0  0  0  0  0  0  0  0  0
   -2.2678   -0.9504    0.0000 H   0  0  0  0  0  0  0  0  0  0  0  0
   -2.0498   -1.6241    0.0000 H   0  0  0  0  0  0  0  0  0  0  0  0
   -1.4850    0.6116    0.0000 H   0  0  0  0  0  0  0  0  0  0  0  0
  1 21  1  0  0  0  0
  1 22  1  0  0  0  0
  1  2  1  0  0  0  0
 17  1  1  0  0  0  0
  2  3  1  0  0  0  0
  2 24  1  0  0  0  0
  2 25  1  0  0  0  0
  4  3  1  0  0  0  0
  4  5  1  0  0  0  0
 18  4  1  0  0  0  0
  4 26  1  1  0  0  0
  6  5  1  0  0  0  0
  6  7  1  1  0  0  0
  6 10  1  0  0  0  0
  6 20  1  0  0  0  0
  7  8  1  0  0  0  0
  7 27  1  0  0  0  0
  7 28  1  0  0  0  0
  8  9  1  0  0  0  0
  8 29  1  0  0  0  0
  8 30  1  0  0  0  0
  9 31  1  0  0  0  0
  9 32  1  0  0  0  0
  9 33  1  0  0  0  0
 10 11  1  0  0  0  0
 10 34  1  0  0  0  0
 10 35  1  0  0  0  0
 12 11  1  0  0  0  0
 11 36  1  0  0  0  0
 11 37  1  0  0  0  0
 12 23  1  6  0  0  0
 12 13  1  0  0  0  0
 18 12  1  0  0  0  0
 13 14  1  0  0  0  0
 13 15  1  1  0  0  0
 13 38  1  6  0  0  0
 14 39  1  0  0  0  0
 14 40  1  0  0  0  0
 14 41  1  0  0  0  0
 15 16  1  0  0  0  0
 15 42  1  0  0  0  0
 15 43  1  0  0  0  0
 17 16  1  0  0  0  0
 16 44  1  0  0  0  0
 16 45  1  0  0  0  0
 18 17  1  0  0  0  0
 17 46  1  6  0  0  0
 18 19  1  6  0  0  0
 19 20  1  0  0  0  0
M  END
