
  Mrv171c004271813302D          

 49 52  0  0  0  0            999 V2000
   -2.1690   -0.3672    0.0000 C   0  0  0  0  0  0  0  0  0  0  0  0
   -2.4576    0.4229    0.0000 C   0  0  0  0  0  0  0  0  0  0  0  0
   -1.7524    0.8805    0.0000 O   0  0  0  0  0  0  0  0  0  0  0  0
   -0.9376    0.6099    0.0000 C   0  0  2  0  0  0  0  0  0  0  0  0
   -0.0049    0.3892    0.0000 O   0  0  0  0  0  0  0  0  0  0  0  0
    0.8271    0.6021    0.0000 C   0  0  1  0  0  0  0  0  0  0  0  0
    1.5125    1.0613    0.0000 C   0  0  0  0  0  0  0  0  0  0  0  0
    1.4577    1.8844    0.0000 C   0  0  0  0  0  0  0  0  0  0  0  0
    2.1431    2.3435    0.0000 C   0  0  0  0  0  0  0  0  0  0  0  0
    2.0882    3.1667    0.0000 C   0  0  0  0  0  0  0  0  0  0  0  0
    1.3129   -0.0956    0.0000 C   0  0  0  0  0  0  0  0  0  0  0  0
    0.8241   -0.7847    0.0000 C   0  0  0  0  0  0  0  0  0  0  0  0
   -0.0334   -0.7958    0.0000 C   0  0  1  0  0  0  0  0  0  0  0  0
   -0.1498   -1.6431    0.0000 C   0  0  1  0  0  0  0  0  0  0  0  0
    0.5386   -2.0978    0.0000 C   0  0  0  0  0  0  0  0  0  0  0  0
   -0.8690   -2.0743    0.0000 C   0  0  0  0  0  0  0  0  0  0  0  0
   -1.4326   -1.4548    0.0000 C   0  0  0  0  0  0  0  0  0  0  0  0
   -1.3364   -0.5999    0.0000 C   0  0  2  0  0  0  0  0  0  0  0  0
   -0.5941   -0.1004    0.0000 C   0  0  1  0  0  0  0  0  0  0  0  0
   -0.3555    0.8504    0.0000 O   0  0  0  0  0  0  0  0  0  0  0  0
    0.3707    1.3108    0.0000 O   0  0  0  0  0  0  0  0  0  0  0  0
   -2.9383   -0.6654    0.0000 H   0  0  0  0  0  0  0  0  0  0  0  0
   -2.4067   -1.1573    0.0000 H   0  0  0  0  0  0  0  0  0  0  0  0
    0.3177   -0.0493    0.0000 H   0  0  0  0  0  0  0  0  0  0  0  0
   -3.0198    1.0267    0.0000 H   0  0  0  0  0  0  0  0  0  0  0  0
   -3.2698    0.2784    0.0000 H   0  0  0  0  0  0  0  0  0  0  0  0
   -0.9669    1.4344    0.0000 H   0  0  0  0  0  0  0  0  0  0  0  0
    2.0107    0.4037    0.0000 H   0  0  0  0  0  0  0  0  0  0  0  0
    2.3375    1.0682    0.0000 H   0  0  0  0  0  0  0  0  0  0  0  0
    0.9595    2.5420    0.0000 H   0  0  0  0  0  0  0  0  0  0  0  0
    0.6327    1.8775    0.0000 H   0  0  0  0  0  0  0  0  0  0  0  0
    2.6413    1.6859    0.0000 H   0  0  0  0  0  0  0  0  0  0  0  0
    2.9681    2.3505    0.0000 H   0  0  0  0  0  0  0  0  0  0  0  0
    2.9114    3.2216    0.0000 H   0  0  0  0  0  0  0  0  0  0  0  0
    2.0334    3.9899    0.0000 H   0  0  0  0  0  0  0  0  0  0  0  0
    1.2651    3.1118    0.0000 H   0  0  0  0  0  0  0  0  0  0  0  0
    1.5718   -0.8789    0.0000 H   0  0  0  0  0  0  0  0  0  0  0  0
    2.0972   -0.3514    0.0000 H   0  0  0  0  0  0  0  0  0  0  0  0
    0.3881   -1.4851    0.0000 H   0  0  0  0  0  0  0  0  0  0  0  0
    1.1787   -1.5296    0.0000 H   0  0  0  0  0  0  0  0  0  0  0  0
   -0.8383   -1.1885    0.0000 H   0  0  0  0  0  0  0  0  0  0  0  0
   -0.1736   -2.5142    0.0000 H   0  0  0  0  0  0  0  0  0  0  0  0
    0.5973   -2.9207    0.0000 H   0  0  0  0  0  0  0  0  0  0  0  0
    1.3027   -2.4090    0.0000 H   0  0  0  0  0  0  0  0  0  0  0  0
   -1.5956   -2.4651    0.0000 H   0  0  0  0  0  0  0  0  0  0  0  0
   -1.1281   -2.8576    0.0000 H   0  0  0  0  0  0  0  0  0  0  0  0
   -2.2505   -1.3475    0.0000 H   0  0  0  0  0  0  0  0  0  0  0  0
   -2.0325   -2.0211    0.0000 H   0  0  0  0  0  0  0  0  0  0  0  0
   -1.4677    0.2146    0.0000 H   0  0  0  0  0  0  0  0  0  0  0  0
  1 22  1  0  0  0  0
  1 23  1  0  0  0  0
  1  2  1  0  0  0  0
 18  1  1  0  0  0  0
  2  3  1  0  0  0  0
  2 25  1  0  0  0  0
  2 26  1  0  0  0  0
  4  3  1  0  0  0  0
  4  5  1  0  0  0  0
 19  4  1  0  0  0  0
  4 27  1  1  0  0  0
  6  5  1  0  0  0  0
  6  7  1  1  0  0  0
  6 11  1  0  0  0  0
  6 21  1  0  0  0  0
  7  8  1  0  0  0  0
  7 28  1  0  0  0  0
  7 29  1  0  0  0  0
  8  9  1  0  0  0  0
  8 30  1  0  0  0  0
  8 31  1  0  0  0  0
  9 10  1  0  0  0  0
  9 32  1  0  0  0  0
  9 33  1  0  0  0  0
 10 34  1  0  0  0  0
 10 35  1  0  0  0  0
 10 36  1  0  0  0  0
 11 12  1  0  0  0  0
 11 37  1  0  0  0  0
 11 38  1  0  0  0  0
 13 12  1  0  0  0  0
 12 39  1  0  0  0  0
 12 40  1  0  0  0  0
 13 24  1  6  0  0  0
 13 14  1  0  0  0  0
 19 13  1  0  0  0  0
 14 15  1  0  0  0  0
 14 16  1  1  0  0  0
 14 41  1  6  0  0  0
 15 42  1  0  0  0  0
 15 43  1  0  0  0  0
 15 44  1  0  0  0  0
 16 17  1  0  0  0  0
 16 45  1  0  0  0  0
 16 46  1  0  0  0  0
 18 17  1  0  0  0  0
 17 47  1  0  0  0  0
 17 48  1  0  0  0  0
 19 18  1  0  0  0  0
 18 49  1  6  0  0  0
 19 20  1  6  0  0  0
 20 21  1  0  0  0  0
M  END
