
  Mrv171c004271813302D          

 68 72  0  0  0  0            999 V2000
   -1.6406   -0.2668    0.0000 C   0  0  0  0  0  0  0  0  0  0  0  0
   -2.3214    0.1992    0.0000 O   0  0  0  0  0  0  0  0  0  0  0  0
   -2.2582    1.0218    0.0000 C   0  0  1  0  0  0  0  0  0  0  0  0
   -2.9848    1.5511    0.0000 O   0  0  0  0  0  0  0  0  0  0  0  0
   -3.1019    2.4422    0.0000 C   0  0  1  0  0  0  0  0  0  0  0  0
   -3.9021    2.6428    0.0000 C   0  0  0  0  0  0  0  0  0  0  0  0
   -2.5810    3.1689    0.0000 C   0  0  0  0  0  0  0  0  0  0  0  0
   -1.6973    3.0747    0.0000 C   0  0  0  0  0  0  0  0  0  0  0  0
   -1.2065    2.3225    0.0000 C   0  0  1  0  0  0  0  0  0  0  0  0
   -0.4229    2.6823    0.0000 C   0  0  0  0  0  0  0  0  0  0  0  0
    0.1502    2.0720    0.0000 C   0  0  0  0  0  0  0  0  0  0  0  0
   -0.0107    1.2471    0.0000 C   0  0  0  0  0  0  0  0  0  0  0  0
   -0.7761    0.9057    0.0000 C   0  0  1  0  0  0  0  0  0  0  0  0
   -0.8808    0.0874    0.0000 C   0  0  0  0  0  0  0  0  0  0  0  0
   -0.2244   -0.4124    0.0000 C   0  0  0  0  0  0  0  0  0  0  0  0
   -0.3291   -1.2308    0.0000 O   0  0  0  0  0  0  0  0  0  0  0  0
    0.3272   -1.7306    0.0000 P   0  0  0  0  0  0  0  0  0  0  0  0
   -0.1726   -2.3869    0.0000 O   0  0  0  0  0  0  0  0  0  0  0  0
    0.9836   -2.2304    0.0000 O   0  0  0  0  0  0  0  0  0  0  0  0
    0.8789   -3.0487    0.0000 C   0  0  0  0  0  0  0  0  0  0  0  0
    1.5353   -3.5485    0.0000 C   0  0  0  0  0  0  0  0  0  0  0  0
    1.4306   -4.3669    0.0000 C   0  0  0  0  0  0  0  0  0  0  0  0
    0.6696   -4.6854    0.0000 C   0  0  0  0  0  0  0  0  0  0  0  0
    0.0132   -4.1856    0.0000 C   0  0  0  0  0  0  0  0  0  0  0  0
    0.1179   -3.3672    0.0000 C   0  0  0  0  0  0  0  0  0  0  0  0
    0.8271   -1.0742    0.0000 O   0  0  0  0  0  0  0  0  0  0  0  0
    1.6454   -1.1789    0.0000 C   0  0  0  0  0  0  0  0  0  0  0  0
    2.1452   -0.5225    0.0000 C   0  0  0  0  0  0  0  0  0  0  0  0
    2.9635   -0.6272    0.0000 C   0  0  0  0  0  0  0  0  0  0  0  0
    3.2821   -1.3882    0.0000 C   0  0  0  0  0  0  0  0  0  0  0  0
    2.7822   -2.0446    0.0000 C   0  0  0  0  0  0  0  0  0  0  0  0
    1.9639   -1.9399    0.0000 C   0  0  0  0  0  0  0  0  0  0  0  0
   -1.4460    1.4408    0.0000 C   0  0  1  0  0  0  0  0  0  0  0  0
   -2.1772    1.7239    0.0000 O   0  0  0  0  0  0  0  0  0  0  0  0
   -2.3080    2.4906    0.0000 O   0  0  0  0  0  0  0  0  0  0  0  0
   -1.5707    0.5658    0.0000 H   0  0  0  0  0  0  0  0  0  0  0  0
   -2.0214    2.1939    0.0000 H   0  0  0  0  0  0  0  0  0  0  0  0
   -0.1140    0.4135    0.0000 H   0  0  0  0  0  0  0  0  0  0  0  0
   -2.3856   -0.6213    0.0000 H   0  0  0  0  0  0  0  0  0  0  0  0
   -1.7082   -1.0890    0.0000 H   0  0  0  0  0  0  0  0  0  0  0  0
   -0.9636   -0.7383    0.0000 H   0  0  0  0  0  0  0  0  0  0  0  0
   -3.7015    3.4431    0.0000 H   0  0  0  0  0  0  0  0  0  0  0  0
   -4.7024    2.8434    0.0000 H   0  0  0  0  0  0  0  0  0  0  0  0
   -4.1028    1.8426    0.0000 H   0  0  0  0  0  0  0  0  0  0  0  0
   -2.5440    3.9930    0.0000 H   0  0  0  0  0  0  0  0  0  0  0  0
   -3.2209    3.6896    0.0000 H   0  0  0  0  0  0  0  0  0  0  0  0
   -1.0045    3.5225    0.0000 H   0  0  0  0  0  0  0  0  0  0  0  0
   -1.6135    3.8954    0.0000 H   0  0  0  0  0  0  0  0  0  0  0  0
    0.0964    3.3234    0.0000 H   0  0  0  0  0  0  0  0  0  0  0  0
   -0.6624    3.4718    0.0000 H   0  0  0  0  0  0  0  0  0  0  0  0
    0.9628    1.9295    0.0000 H   0  0  0  0  0  0  0  0  0  0  0  0
    0.7622    2.6252    0.0000 H   0  0  0  0  0  0  0  0  0  0  0  0
    0.3432    0.5019    0.0000 H   0  0  0  0  0  0  0  0  0  0  0  0
    0.7951    1.0700    0.0000 H   0  0  0  0  0  0  0  0  0  0  0  0
   -1.2162    0.8411    0.0000 H   0  0  0  0  0  0  0  0  0  0  0  0
   -1.7028    0.1575    0.0000 H   0  0  0  0  0  0  0  0  0  0  0  0
    0.4310   -0.9135    0.0000 H   0  0  0  0  0  0  0  0  0  0  0  0
    0.5378   -0.0968    0.0000 H   0  0  0  0  0  0  0  0  0  0  0  0
    2.2963   -3.2300    0.0000 H   0  0  0  0  0  0  0  0  0  0  0  0
    2.0870   -4.8667    0.0000 H   0  0  0  0  0  0  0  0  0  0  0  0
    0.5649   -5.5037    0.0000 H   0  0  0  0  0  0  0  0  0  0  0  0
   -0.7478   -4.5041    0.0000 H   0  0  0  0  0  0  0  0  0  0  0  0
   -0.5385   -2.8674    0.0000 H   0  0  0  0  0  0  0  0  0  0  0  0
    1.8267    0.2385    0.0000 H   0  0  0  0  0  0  0  0  0  0  0  0
    3.4633    0.0292    0.0000 H   0  0  0  0  0  0  0  0  0  0  0  0
    4.1004   -1.4929    0.0000 H   0  0  0  0  0  0  0  0  0  0  0  0
    3.1008   -2.8056    0.0000 H   0  0  0  0  0  0  0  0  0  0  0  0
    1.4641   -2.5963    0.0000 H   0  0  0  0  0  0  0  0  0  0  0  0
  1  2  1  0  0  0  0
  1 39  1  0  0  0  0
  1 40  1  0  0  0  0
  1 41  1  0  0  0  0
  3  2  1  0  0  0  0
  3 36  1  6  0  0  0
  3  4  1  0  0  0  0
 33  3  1  0  0  0  0
  5  4  1  0  0  0  0
  5  6  1  6  0  0  0
  5  7  1  0  0  0  0
  5 35  1  0  0  0  0
  6 42  1  0  0  0  0
  6 43  1  0  0  0  0
  6 44  1  0  0  0  0
  7  8  1  0  0  0  0
  7 45  1  0  0  0  0
  7 46  1  0  0  0  0
  9  8  1  0  0  0  0
  8 47  1  0  0  0  0
  8 48  1  0  0  0  0
  9 37  1  6  0  0  0
  9 10  1  0  0  0  0
 33  9  1  0  0  0  0
 10 11  1  0  0  0  0
 10 49  1  0  0  0  0
 10 50  1  0  0  0  0
 11 12  1  0  0  0  0
 11 51  1  0  0  0  0
 11 52  1  0  0  0  0
 13 12  1  0  0  0  0
 12 53  1  0  0  0  0
 12 54  1  0  0  0  0
 13 38  1  6  0  0  0
 13 14  1  0  0  0  0
 33 13  1  0  0  0  0
 14 15  1  0  0  0  0
 14 55  1  0  0  0  0
 14 56  1  0  0  0  0
 15 16  1  0  0  0  0
 15 57  1  0  0  0  0
 15 58  1  0  0  0  0
 16 17  1  0  0  0  0
 17 18  2  0  0  0  0
 17 19  1  0  0  0  0
 17 26  1  0  0  0  0
 19 20  1  0  0  0  0
 20 21  1  0  0  0  0
 20 25  2  0  0  0  0
 21 22  2  0  0  0  0
 21 59  1  0  0  0  0
 22 23  1  0  0  0  0
 22 60  1  0  0  0  0
 23 24  2  0  0  0  0
 23 61  1  0  0  0  0
 24 25  1  0  0  0  0
 24 62  1  0  0  0  0
 25 63  1  0  0  0  0
 26 27  1  0  0  0  0
 27 28  1  0  0  0  0
 27 32  2  0  0  0  0
 28 29  2  0  0  0  0
 28 64  1  0  0  0  0
 29 30  1  0  0  0  0
 29 65  1  0  0  0  0
 30 31  2  0  0  0  0
 30 66  1  0  0  0  0
 31 32  1  0  0  0  0
 31 67  1  0  0  0  0
 32 68  1  0  0  0  0
 33 34  1  6  0  0  0
 34 35  1  0  0  0  0
M  END
