
  Mrv171c004271813302D          

 36 39  0  0  0  0            999 V2000
    1.9519    1.2551    0.0000 C   0  0  0  0  0  0  0  0  0  0  0  0
    1.2815    0.7743    0.0000 C   0  0  1  0  0  0  0  0  0  0  0  0
    1.7853    0.0745    0.0000 C   0  0  0  0  0  0  0  0  0  0  0  0
    1.3012   -0.6293    0.0000 C   0  0  0  0  0  0  0  0  0  0  0  0
    0.4429   -0.6860    0.0000 C   0  0  1  0  0  0  0  0  0  0  0  0
    0.3192   -1.5351    0.0000 C   0  0  0  0  0  0  0  0  0  0  0  0
   -0.4145   -1.9405    0.0000 C   0  0  0  0  0  0  0  0  0  0  0  0
   -0.9649   -1.3235    0.0000 C   0  0  0  0  0  0  0  0  0  0  0  0
   -0.8769   -0.4824    0.0000 C   0  0  1  0  0  0  0  0  0  0  0  0
   -1.6928   -0.2078    0.0000 C   0  0  0  0  0  0  0  0  0  0  0  0
   -2.0046    0.5826    0.0000 C   0  0  0  0  0  0  0  0  0  0  0  0
   -2.7895    0.8368    0.0000 O   0  0  0  0  0  0  0  0  0  0  0  0
   -1.2949    1.0361    0.0000 O   0  0  0  0  0  0  0  0  0  0  0  0
   -0.4666    0.7392    0.0000 C   0  0  2  0  0  0  0  0  0  0  0  0
    0.4686    0.4892    0.0000 O   0  0  0  0  0  0  0  0  0  0  0  0
   -0.1369    0.0087    0.0000 C   0  0  1  0  0  0  0  0  0  0  0  0
    0.1118    0.9396    0.0000 O   0  0  0  0  0  0  0  0  0  0  0  0
    0.7817    1.4740    0.0000 O   0  0  0  0  0  0  0  0  0  0  0  0
   -0.3510   -0.9104    0.0000 H   0  0  0  0  0  0  0  0  0  0  0  0
    2.4327    0.5847    0.0000 H   0  0  0  0  0  0  0  0  0  0  0  0
    2.6223    1.7359    0.0000 H   0  0  0  0  0  0  0  0  0  0  0  0
    1.4711    1.9255    0.0000 H   0  0  0  0  0  0  0  0  0  0  0  0
    2.0639   -0.7020    0.0000 H   0  0  0  0  0  0  0  0  0  0  0  0
    2.5783   -0.1531    0.0000 H   0  0  0  0  0  0  0  0  0  0  0  0
    1.2892   -1.4542    0.0000 H   0  0  0  0  0  0  0  0  0  0  0  0
    0.8933    0.0878    0.0000 H   0  0  0  0  0  0  0  0  0  0  0  0
    0.7248   -2.2536    0.0000 H   0  0  0  0  0  0  0  0  0  0  0  0
    1.1345   -1.6616    0.0000 H   0  0  0  0  0  0  0  0  0  0  0  0
   -0.9252   -2.5884    0.0000 H   0  0  0  0  0  0  0  0  0  0  0  0
   -0.1472   -2.7210    0.0000 H   0  0  0  0  0  0  0  0  0  0  0  0
   -1.7830   -1.2169    0.0000 H   0  0  0  0  0  0  0  0  0  0  0  0
   -1.5665   -1.8880    0.0000 H   0  0  0  0  0  0  0  0  0  0  0  0
   -0.9844    0.3356    0.0000 H   0  0  0  0  0  0  0  0  0  0  0  0
   -2.4634   -0.5024    0.0000 H   0  0  0  0  0  0  0  0  0  0  0  0
   -1.9477   -0.9925    0.0000 H   0  0  0  0  0  0  0  0  0  0  0  0
   -0.4622    1.5642    0.0000 H   0  0  0  0  0  0  0  0  0  0  0  0
  2  1  1  1  0  0  0
  1 20  1  0  0  0  0
  1 21  1  0  0  0  0
  1 22  1  0  0  0  0
  2  3  1  0  0  0  0
  2 15  1  0  0  0  0
  2 18  1  0  0  0  0
  3  4  1  0  0  0  0
  3 23  1  0  0  0  0
  3 24  1  0  0  0  0
  5  4  1  0  0  0  0
  4 25  1  0  0  0  0
  4 26  1  0  0  0  0
  5 19  1  6  0  0  0
  5  6  1  0  0  0  0
 16  5  1  0  0  0  0
  6  7  1  0  0  0  0
  6 27  1  0  0  0  0
  6 28  1  0  0  0  0
  7  8  1  0  0  0  0
  7 29  1  0  0  0  0
  7 30  1  0  0  0  0
  9  8  1  0  0  0  0
  8 31  1  0  0  0  0
  8 32  1  0  0  0  0
  9 10  1  0  0  0  0
 16  9  1  0  0  0  0
  9 33  1  6  0  0  0
 10 11  1  0  0  0  0
 10 34  1  0  0  0  0
 10 35  1  0  0  0  0
 11 12  2  0  0  0  0
 11 13  1  0  0  0  0
 14 13  1  0  0  0  0
 14 15  1  0  0  0  0
 16 14  1  0  0  0  0
 14 36  1  1  0  0  0
 16 17  1  6  0  0  0
 17 18  1  0  0  0  0
M  END
