
  Mrv171c004271813302D          

 66 70  0  0  0  0            999 V2000
   -0.9383    0.4352    0.0000 C   0  0  0  0  0  0  0  0  0  0  0  0
   -1.6190    0.9012    0.0000 O   0  0  0  0  0  0  0  0  0  0  0  0
   -1.5559    1.7238    0.0000 C   0  0  1  0  0  0  0  0  0  0  0  0
   -2.2825    2.2531    0.0000 O   0  0  0  0  0  0  0  0  0  0  0  0
   -2.3995    3.1441    0.0000 C   0  0  1  0  0  0  0  0  0  0  0  0
   -3.1998    3.3448    0.0000 C   0  0  0  0  0  0  0  0  0  0  0  0
   -1.8787    3.8708    0.0000 C   0  0  0  0  0  0  0  0  0  0  0  0
   -0.9950    3.7766    0.0000 C   0  0  0  0  0  0  0  0  0  0  0  0
   -0.5041    3.0244    0.0000 C   0  0  1  0  0  0  0  0  0  0  0  0
    0.2794    3.3843    0.0000 C   0  0  0  0  0  0  0  0  0  0  0  0
    0.8525    2.7739    0.0000 C   0  0  0  0  0  0  0  0  0  0  0  0
    0.6917    1.9491    0.0000 C   0  0  0  0  0  0  0  0  0  0  0  0
   -0.0738    1.6076    0.0000 C   0  0  1  0  0  0  0  0  0  0  0  0
   -0.1784    0.7893    0.0000 C   0  0  0  0  0  0  0  0  0  0  0  0
    0.4779    0.2895    0.0000 C   0  0  0  0  0  0  0  0  0  0  0  0
    0.3732   -0.5288    0.0000 O   0  0  0  0  0  0  0  0  0  0  0  0
    1.0296   -1.0286    0.0000 C   0  0  0  0  0  0  0  0  0  0  0  0
    0.9249   -1.8470    0.0000 C   0  0  0  0  0  0  0  0  0  0  0  0
    1.5813   -2.3468    0.0000 C   0  0  0  0  0  0  0  0  0  0  0  0
    1.4766   -3.1651    0.0000 C   0  0  0  0  0  0  0  0  0  0  0  0
    0.7156   -3.4836    0.0000 C   0  0  0  0  0  0  0  0  0  0  0  0
    0.6109   -4.3020    0.0000 C   0  0  0  0  0  0  0  0  0  0  0  0
    1.2673   -4.8018    0.0000 C   0  0  0  0  0  0  0  0  0  0  0  0
    1.1626   -5.6201    0.0000 C   0  0  0  0  0  0  0  0  0  0  0  0
    0.4016   -5.9386    0.0000 C   0  0  0  0  0  0  0  0  0  0  0  0
   -0.2548   -5.4388    0.0000 C   0  0  0  0  0  0  0  0  0  0  0  0
   -0.1501   -4.6205    0.0000 C   0  0  0  0  0  0  0  0  0  0  0  0
    0.0592   -2.9838    0.0000 C   0  0  0  0  0  0  0  0  0  0  0  0
    0.1639   -2.1655    0.0000 C   0  0  0  0  0  0  0  0  0  0  0  0
   -0.7437    2.1427    0.0000 C   0  0  1  0  0  0  0  0  0  0  0  0
   -1.4748    2.4258    0.0000 O   0  0  0  0  0  0  0  0  0  0  0  0
   -1.6057    3.1926    0.0000 O   0  0  0  0  0  0  0  0  0  0  0  0
   -0.8683    1.2678    0.0000 H   0  0  0  0  0  0  0  0  0  0  0  0
   -1.3190    2.8959    0.0000 H   0  0  0  0  0  0  0  0  0  0  0  0
    0.5883    1.1155    0.0000 H   0  0  0  0  0  0  0  0  0  0  0  0
   -1.6832    0.0806    0.0000 H   0  0  0  0  0  0  0  0  0  0  0  0
   -1.0059   -0.3871    0.0000 H   0  0  0  0  0  0  0  0  0  0  0  0
   -0.2613   -0.0363    0.0000 H   0  0  0  0  0  0  0  0  0  0  0  0
   -2.9991    4.1450    0.0000 H   0  0  0  0  0  0  0  0  0  0  0  0
   -4.0000    3.5454    0.0000 H   0  0  0  0  0  0  0  0  0  0  0  0
   -3.4004    2.5445    0.0000 H   0  0  0  0  0  0  0  0  0  0  0  0
   -1.8416    4.6950    0.0000 H   0  0  0  0  0  0  0  0  0  0  0  0
   -2.5185    4.3916    0.0000 H   0  0  0  0  0  0  0  0  0  0  0  0
   -0.3021    4.2245    0.0000 H   0  0  0  0  0  0  0  0  0  0  0  0
   -0.9111    4.5973    0.0000 H   0  0  0  0  0  0  0  0  0  0  0  0
    0.7987    4.0253    0.0000 H   0  0  0  0  0  0  0  0  0  0  0  0
    0.0400    4.1738    0.0000 H   0  0  0  0  0  0  0  0  0  0  0  0
    1.6651    2.6314    0.0000 H   0  0  0  0  0  0  0  0  0  0  0  0
    1.4646    3.3271    0.0000 H   0  0  0  0  0  0  0  0  0  0  0  0
    1.0455    1.2038    0.0000 H   0  0  0  0  0  0  0  0  0  0  0  0
    1.4975    1.7720    0.0000 H   0  0  0  0  0  0  0  0  0  0  0  0
   -0.5138    1.5431    0.0000 H   0  0  0  0  0  0  0  0  0  0  0  0
   -1.0005    0.8594    0.0000 H   0  0  0  0  0  0  0  0  0  0  0  0
    1.1333   -0.2116    0.0000 H   0  0  0  0  0  0  0  0  0  0  0  0
    1.2401    0.6051    0.0000 H   0  0  0  0  0  0  0  0  0  0  0  0
    1.7629   -1.4066    0.0000 H   0  0  0  0  0  0  0  0  0  0  0  0
    1.8343   -0.8466    0.0000 H   0  0  0  0  0  0  0  0  0  0  0  0
    2.3959   -2.4774    0.0000 H   0  0  0  0  0  0  0  0  0  0  0  0
    2.1330   -3.6649    0.0000 H   0  0  0  0  0  0  0  0  0  0  0  0
    2.0283   -4.4833    0.0000 H   0  0  0  0  0  0  0  0  0  0  0  0
    1.8190   -6.1199    0.0000 H   0  0  0  0  0  0  0  0  0  0  0  0
    0.2969   -6.7570    0.0000 H   0  0  0  0  0  0  0  0  0  0  0  0
   -1.0158   -5.7574    0.0000 H   0  0  0  0  0  0  0  0  0  0  0  0
   -0.8065   -4.1207    0.0000 H   0  0  0  0  0  0  0  0  0  0  0  0
   -0.7018   -3.3024    0.0000 H   0  0  0  0  0  0  0  0  0  0  0  0
   -0.4924   -1.6657    0.0000 H   0  0  0  0  0  0  0  0  0  0  0  0
  1  2  1  0  0  0  0
  1 36  1  0  0  0  0
  1 37  1  0  0  0  0
  1 38  1  0  0  0  0
  3  2  1  0  0  0  0
  3 33  1  6  0  0  0
  3  4  1  0  0  0  0
 30  3  1  0  0  0  0
  5  4  1  0  0  0  0
  5  6  1  6  0  0  0
  5  7  1  0  0  0  0
  5 32  1  0  0  0  0
  6 39  1  0  0  0  0
  6 40  1  0  0  0  0
  6 41  1  0  0  0  0
  7  8  1  0  0  0  0
  7 42  1  0  0  0  0
  7 43  1  0  0  0  0
  9  8  1  0  0  0  0
  8 44  1  0  0  0  0
  8 45  1  0  0  0  0
  9 34  1  6  0  0  0
  9 10  1  0  0  0  0
 30  9  1  0  0  0  0
 10 11  1  0  0  0  0
 10 46  1  0  0  0  0
 10 47  1  0  0  0  0
 11 12  1  0  0  0  0
 11 48  1  0  0  0  0
 11 49  1  0  0  0  0
 13 12  1  0  0  0  0
 12 50  1  0  0  0  0
 12 51  1  0  0  0  0
 13 35  1  6  0  0  0
 13 14  1  0  0  0  0
 30 13  1  0  0  0  0
 14 15  1  0  0  0  0
 14 52  1  0  0  0  0
 14 53  1  0  0  0  0
 15 16  1  0  0  0  0
 15 54  1  0  0  0  0
 15 55  1  0  0  0  0
 16 17  1  0  0  0  0
 17 18  1  0  0  0  0
 17 56  1  0  0  0  0
 17 57  1  0  0  0  0
 18 19  1  0  0  0  0
 18 29  2  0  0  0  0
 19 20  2  0  0  0  0
 19 58  1  0  0  0  0
 20 21  1  0  0  0  0
 20 59  1  0  0  0  0
 21 22  1  0  0  0  0
 21 28  2  0  0  0  0
 22 23  1  0  0  0  0
 22 27  2  0  0  0  0
 23 24  2  0  0  0  0
 23 60  1  0  0  0  0
 24 25  1  0  0  0  0
 24 61  1  0  0  0  0
 25 26  2  0  0  0  0
 25 62  1  0  0  0  0
 26 27  1  0  0  0  0
 26 63  1  0  0  0  0
 27 64  1  0  0  0  0
 28 29  1  0  0  0  0
 28 65  1  0  0  0  0
 29 66  1  0  0  0  0
 30 31  1  6  0  0  0
 31 32  1  0  0  0  0
M  END
