
  Mrv171c004271813302D          

 55 58  0  0  0  0            999 V2000
   -0.8165   -0.6205    0.0000 C   0  0  0  0  0  0  0  0  0  0  0  0
   -1.4973   -0.1545    0.0000 O   0  0  0  0  0  0  0  0  0  0  0  0
   -1.4341    0.6681    0.0000 C   0  0  1  0  0  0  0  0  0  0  0  0
   -2.1607    1.1974    0.0000 O   0  0  0  0  0  0  0  0  0  0  0  0
   -2.2777    2.0884    0.0000 C   0  0  1  0  0  0  0  0  0  0  0  0
   -3.0780    2.2891    0.0000 C   0  0  0  0  0  0  0  0  0  0  0  0
   -1.7569    2.8151    0.0000 C   0  0  0  0  0  0  0  0  0  0  0  0
   -0.8732    2.7209    0.0000 C   0  0  0  0  0  0  0  0  0  0  0  0
   -0.3823    1.9688    0.0000 C   0  0  1  0  0  0  0  0  0  0  0  0
    0.4012    2.3286    0.0000 C   0  0  0  0  0  0  0  0  0  0  0  0
    0.9743    1.7182    0.0000 C   0  0  0  0  0  0  0  0  0  0  0  0
    0.8135    0.8934    0.0000 C   0  0  0  0  0  0  0  0  0  0  0  0
    0.0480    0.5520    0.0000 C   0  0  1  0  0  0  0  0  0  0  0  0
   -0.0567   -0.2664    0.0000 C   0  0  0  0  0  0  0  0  0  0  0  0
    0.5997   -0.7662    0.0000 C   0  0  0  0  0  0  0  0  0  0  0  0
    0.4950   -1.5845    0.0000 O   0  0  0  0  0  0  0  0  0  0  0  0
    1.1514   -2.0843    0.0000 C   0  0  0  0  0  0  0  0  0  0  0  0
    1.9124   -1.7658    0.0000 O   0  0  0  0  0  0  0  0  0  0  0  0
    1.0467   -2.9027    0.0000 C   0  0  0  0  0  0  0  0  0  0  0  0
    1.7031   -3.4025    0.0000 C   0  0  0  0  0  0  0  0  0  0  0  0
    1.5984   -4.2208    0.0000 C   0  0  0  0  0  0  0  0  0  0  0  0
    0.8374   -4.5393    0.0000 C   0  0  0  0  0  0  0  0  0  0  0  0
    0.1810   -4.0395    0.0000 C   0  0  0  0  0  0  0  0  0  0  0  0
    0.2857   -3.2212    0.0000 C   0  0  0  0  0  0  0  0  0  0  0  0
   -0.6219    1.0870    0.0000 C   0  0  1  0  0  0  0  0  0  0  0  0
   -1.3531    1.3702    0.0000 O   0  0  0  0  0  0  0  0  0  0  0  0
   -1.4839    2.1369    0.0000 O   0  0  0  0  0  0  0  0  0  0  0  0
   -0.7465    0.2121    0.0000 H   0  0  0  0  0  0  0  0  0  0  0  0
   -1.1973    1.8402    0.0000 H   0  0  0  0  0  0  0  0  0  0  0  0
    0.7101    0.0598    0.0000 H   0  0  0  0  0  0  0  0  0  0  0  0
   -1.5614   -0.9751    0.0000 H   0  0  0  0  0  0  0  0  0  0  0  0
   -0.8841   -1.4427    0.0000 H   0  0  0  0  0  0  0  0  0  0  0  0
   -0.1395   -1.0920    0.0000 H   0  0  0  0  0  0  0  0  0  0  0  0
   -2.8774    3.0893    0.0000 H   0  0  0  0  0  0  0  0  0  0  0  0
   -3.8782    2.4897    0.0000 H   0  0  0  0  0  0  0  0  0  0  0  0
   -3.2786    1.4888    0.0000 H   0  0  0  0  0  0  0  0  0  0  0  0
   -1.7198    3.6393    0.0000 H   0  0  0  0  0  0  0  0  0  0  0  0
   -2.3968    3.3359    0.0000 H   0  0  0  0  0  0  0  0  0  0  0  0
   -0.1803    3.1688    0.0000 H   0  0  0  0  0  0  0  0  0  0  0  0
   -0.7893    3.5416    0.0000 H   0  0  0  0  0  0  0  0  0  0  0  0
    0.9205    2.9696    0.0000 H   0  0  0  0  0  0  0  0  0  0  0  0
    0.1618    3.1181    0.0000 H   0  0  0  0  0  0  0  0  0  0  0  0
    1.7869    1.5758    0.0000 H   0  0  0  0  0  0  0  0  0  0  0  0
    1.5864    2.2714    0.0000 H   0  0  0  0  0  0  0  0  0  0  0  0
    1.1673    0.1481    0.0000 H   0  0  0  0  0  0  0  0  0  0  0  0
    1.6192    0.7163    0.0000 H   0  0  0  0  0  0  0  0  0  0  0  0
   -0.3920    0.4874    0.0000 H   0  0  0  0  0  0  0  0  0  0  0  0
   -0.8787   -0.1962    0.0000 H   0  0  0  0  0  0  0  0  0  0  0  0
    1.2551   -1.2672    0.0000 H   0  0  0  0  0  0  0  0  0  0  0  0
    1.3619   -0.4505    0.0000 H   0  0  0  0  0  0  0  0  0  0  0  0
    2.4641   -3.0840    0.0000 H   0  0  0  0  0  0  0  0  0  0  0  0
    2.2548   -4.7206    0.0000 H   0  0  0  0  0  0  0  0  0  0  0  0
    0.7327   -5.3577    0.0000 H   0  0  0  0  0  0  0  0  0  0  0  0
   -0.5800   -4.3580    0.0000 H   0  0  0  0  0  0  0  0  0  0  0  0
   -0.3707   -2.7214    0.0000 H   0  0  0  0  0  0  0  0  0  0  0  0
  1  2  1  0  0  0  0
  1 31  1  0  0  0  0
  1 32  1  0  0  0  0
  1 33  1  0  0  0  0
  3  2  1  0  0  0  0
  3 28  1  6  0  0  0
  3  4  1  0  0  0  0
 25  3  1  0  0  0  0
  5  4  1  0  0  0  0
  5  6  1  6  0  0  0
  5  7  1  0  0  0  0
  5 27  1  0  0  0  0
  6 34  1  0  0  0  0
  6 35  1  0  0  0  0
  6 36  1  0  0  0  0
  7  8  1  0  0  0  0
  7 37  1  0  0  0  0
  7 38  1  0  0  0  0
  9  8  1  0  0  0  0
  8 39  1  0  0  0  0
  8 40  1  0  0  0  0
  9 29  1  6  0  0  0
  9 10  1  0  0  0  0
 25  9  1  0  0  0  0
 10 11  1  0  0  0  0
 10 41  1  0  0  0  0
 10 42  1  0  0  0  0
 11 12  1  0  0  0  0
 11 43  1  0  0  0  0
 11 44  1  0  0  0  0
 13 12  1  0  0  0  0
 12 45  1  0  0  0  0
 12 46  1  0  0  0  0
 13 30  1  6  0  0  0
 13 14  1  0  0  0  0
 25 13  1  0  0  0  0
 14 15  1  0  0  0  0
 14 47  1  0  0  0  0
 14 48  1  0  0  0  0
 15 16  1  0  0  0  0
 15 49  1  0  0  0  0
 15 50  1  0  0  0  0
 16 17  1  0  0  0  0
 17 18  2  0  0  0  0
 17 19  1  0  0  0  0
 19 20  1  0  0  0  0
 19 24  2  0  0  0  0
 20 21  2  0  0  0  0
 20 51  1  0  0  0  0
 21 22  1  0  0  0  0
 21 52  1  0  0  0  0
 22 23  2  0  0  0  0
 22 53  1  0  0  0  0
 23 24  1  0  0  0  0
 23 54  1  0  0  0  0
 24 55  1  0  0  0  0
 25 26  1  6  0  0  0
 26 27  1  0  0  0  0
M  END
