
  Mrv171c004271813302D          

 50 54  0  0  0  0            999 V2000
    1.0058   -2.0863    0.0000 C   0  0  0  0  0  0  0  0  0  0  0  0
    0.3173   -1.6317    0.0000 C   0  0  1  0  0  0  0  0  0  0  0  0
   -0.4019   -2.0628    0.0000 C   0  0  0  0  0  0  0  0  0  0  0  0
   -0.9654   -1.4433    0.0000 C   0  0  0  0  0  0  0  0  0  0  0  0
   -0.8693   -0.5884    0.0000 C   0  0  1  0  0  0  0  0  0  0  0  0
   -1.7019   -0.3557    0.0000 C   0  0  1  0  0  0  0  0  0  0  0  0
   -2.2622   -0.9613    0.0000 C   0  0  0  0  0  0  0  0  0  0  0  0
   -1.9904    0.4344    0.0000 C   0  0  0  0  0  0  0  0  0  0  0  0
   -2.7729    0.6958    0.0000 O   0  0  0  0  0  0  0  0  0  0  0  0
   -1.2853    0.8920    0.0000 N   0  0  0  0  0  0  0  0  0  0  0  0
   -1.3902    1.7103    0.0000 C   0  0  0  0  0  0  0  0  0  0  0  0
   -2.1139    2.1064    0.0000 C   0  0  0  0  0  0  0  0  0  0  0  0
   -1.9608    2.9171    0.0000 C   0  0  0  0  0  0  0  0  0  0  0  0
   -1.1425    3.0220    0.0000 C   0  0  0  0  0  0  0  0  0  0  0  0
   -0.7898    2.2762    0.0000 S   0  0  0  0  0  0  0  0  0  0  0  0
   -0.4705    0.6214    0.0000 C   0  0  2  0  0  0  0  0  0  0  0  0
    0.4622    0.4007    0.0000 O   0  0  0  0  0  0  0  0  0  0  0  0
    1.2943    0.6136    0.0000 C   0  0  1  0  0  0  0  0  0  0  0  0
    1.9797    1.0727    0.0000 C   0  0  0  0  0  0  0  0  0  0  0  0
    1.7800   -0.0841    0.0000 C   0  0  0  0  0  0  0  0  0  0  0  0
    1.2912   -0.7732    0.0000 C   0  0  0  0  0  0  0  0  0  0  0  0
    0.4338   -0.7844    0.0000 C   0  0  2  0  0  0  0  0  0  0  0  0
   -0.1269   -0.0889    0.0000 C   0  0  1  0  0  0  0  0  0  0  0  0
    0.1117    0.8619    0.0000 O   0  0  0  0  0  0  0  0  0  0  0  0
    0.8379    1.3223    0.0000 O   0  0  0  0  0  0  0  0  0  0  0  0
   -1.4772   -1.1495    0.0000 H   0  0  0  0  0  0  0  0  0  0  0  0
   -0.3611   -1.0052    0.0000 H   0  0  0  0  0  0  0  0  0  0  0  0
    0.5511   -2.7747    0.0000 H   0  0  0  0  0  0  0  0  0  0  0  0
    1.6942   -2.5409    0.0000 H   0  0  0  0  0  0  0  0  0  0  0  0
    1.4604   -1.3978    0.0000 H   0  0  0  0  0  0  0  0  0  0  0  0
    1.0688   -1.2913    0.0000 H   0  0  0  0  0  0  0  0  0  0  0  0
   -0.8998   -2.7206    0.0000 H   0  0  0  0  0  0  0  0  0  0  0  0
   -0.1149   -2.8363    0.0000 H   0  0  0  0  0  0  0  0  0  0  0  0
   -1.7834   -1.3360    0.0000 H   0  0  0  0  0  0  0  0  0  0  0  0
   -1.5653   -2.0096    0.0000 H   0  0  0  0  0  0  0  0  0  0  0  0
   -1.0006    0.2261    0.0000 H   0  0  0  0  0  0  0  0  0  0  0  0
   -2.6226   -0.2192    0.0000 H   0  0  0  0  0  0  0  0  0  0  0  0
   -3.0845   -1.0273    0.0000 H   0  0  0  0  0  0  0  0  0  0  0  0
   -2.4996   -1.7514    0.0000 H   0  0  0  0  0  0  0  0  0  0  0  0
   -2.8597    1.7538    0.0000 H   0  0  0  0  0  0  0  0  0  0  0  0
   -2.5266    3.5175    0.0000 H   0  0  0  0  0  0  0  0  0  0  0  0
   -0.7463    3.7457    0.0000 H   0  0  0  0  0  0  0  0  0  0  0  0
   -0.4998    1.4459    0.0000 H   0  0  0  0  0  0  0  0  0  0  0  0
    2.4388    0.3873    0.0000 H   0  0  0  0  0  0  0  0  0  0  0  0
    2.6651    1.5318    0.0000 H   0  0  0  0  0  0  0  0  0  0  0  0
    1.5206    1.7582    0.0000 H   0  0  0  0  0  0  0  0  0  0  0  0
    2.0390   -0.8674    0.0000 H   0  0  0  0  0  0  0  0  0  0  0  0
    2.5644   -0.3399    0.0000 H   0  0  0  0  0  0  0  0  0  0  0  0
    1.1952    0.0462    0.0000 H   0  0  0  0  0  0  0  0  0  0  0  0
    0.6713   -0.2288    0.0000 H   0  0  0  0  0  0  0  0  0  0  0  0
  2  1  1  1  0  0  0
  1 28  1  0  0  0  0
  1 29  1  0  0  0  0
  1 30  1  0  0  0  0
  2  3  1  0  0  0  0
 22  2  1  0  0  0  0
  2 31  1  6  0  0  0
  3  4  1  0  0  0  0
  3 32  1  0  0  0  0
  3 33  1  0  0  0  0
  5  4  1  0  0  0  0
  4 34  1  0  0  0  0
  4 35  1  0  0  0  0
  5  6  1  0  0  0  0
 23  5  1  0  0  0  0
  5 36  1  6  0  0  0
  6 26  1  6  0  0  0
  6  7  1  1  0  0  0
  6  8  1  0  0  0  0
  7 37  1  0  0  0  0
  7 38  1  0  0  0  0
  7 39  1  0  0  0  0
  8  9  2  0  0  0  0
  8 10  1  0  0  0  0
 10 11  1  0  0  0  0
 16 10  1  0  0  0  0
 11 12  2  0  0  0  0
 11 15  1  0  0  0  0
 12 13  1  0  0  0  0
 12 40  1  0  0  0  0
 13 14  2  0  0  0  0
 13 41  1  0  0  0  0
 14 15  1  0  0  0  0
 14 42  1  0  0  0  0
 16 17  1  0  0  0  0
 23 16  1  0  0  0  0
 16 43  1  1  0  0  0
 18 17  1  0  0  0  0
 18 19  1  1  0  0  0
 18 20  1  0  0  0  0
 18 25  1  0  0  0  0
 19 44  1  0  0  0  0
 19 45  1  0  0  0  0
 19 46  1  0  0  0  0
 20 21  1  0  0  0  0
 20 47  1  0  0  0  0
 20 48  1  0  0  0  0
 22 21  1  0  0  0  0
 21 49  1  0  0  0  0
 21 50  1  0  0  0  0
 22 27  1  6  0  0  0
 23 22  1  0  0  0  0
 23 24  1  6  0  0  0
 24 25  1  0  0  0  0
M  END
