
  Mrv171c004271813302D          

 46 49  0  0  0  0            999 V2000
   -0.7779    0.1079    0.0000 C   0  0  0  0  0  0  0  0  0  0  0  0
   -1.5433   -0.2335    0.0000 C   0  0  0  0  0  0  0  0  0  0  0  0
   -1.7042   -1.0583    0.0000 C   0  0  0  0  0  0  0  0  0  0  0  0
   -1.1311   -1.6687    0.0000 C   0  0  0  0  0  0  0  0  0  0  0  0
   -0.3475   -1.3089    0.0000 C   0  0  2  0  0  0  0  0  0  0  0  0
    0.1433   -2.0610    0.0000 C   0  0  0  0  0  0  0  0  0  0  0  0
    1.0270   -2.1552    0.0000 C   0  0  0  0  0  0  0  0  0  0  0  0
    1.5479   -1.4286    0.0000 C   0  0  1  0  0  0  0  0  0  0  0  0
    2.3481   -1.6292    0.0000 C   0  0  0  0  0  0  0  0  0  0  0  0
    0.7540   -1.4770    0.0000 O   0  0  0  0  0  0  0  0  0  0  0  0
    0.6232   -0.7103    0.0000 O   0  0  0  0  0  0  0  0  0  0  0  0
   -0.1080   -0.4271    0.0000 C   0  0  1  0  0  0  0  0  0  0  0  0
    0.7042   -0.0082    0.0000 C   0  0  2  0  0  0  0  0  0  0  0  0
    0.7674    0.8144    0.0000 O   0  0  0  0  0  0  0  0  0  0  0  0
    0.0866    1.2804    0.0000 C   0  0  0  0  0  0  0  0  0  0  0  0
    0.1498    2.1030    0.0000 C   0  0  0  0  0  0  0  0  0  0  0  0
   -0.5310    2.5690    0.0000 C   0  0  0  0  0  0  0  0  0  0  0  0
   -0.4678    3.3916    0.0000 C   0  0  0  0  0  0  0  0  0  0  0  0
    0.2762    3.7481    0.0000 C   0  0  0  0  0  0  0  0  0  0  0  0
    0.9570    3.2821    0.0000 C   0  0  0  0  0  0  0  0  0  0  0  0
    0.8938    2.4596    0.0000 C   0  0  0  0  0  0  0  0  0  0  0  0
    1.4308   -0.5375    0.0000 O   0  0  0  0  0  0  0  0  0  0  0  0
   -0.3136    0.7899    0.0000 H   0  0  0  0  0  0  0  0  0  0  0  0
   -1.0556    0.8848    0.0000 H   0  0  0  0  0  0  0  0  0  0  0  0
    0.4674   -1.1803    0.0000 H   0  0  0  0  0  0  0  0  0  0  0  0
    1.4533    0.3375    0.0000 H   0  0  0  0  0  0  0  0  0  0  0  0
   -1.8972    0.5118    0.0000 H   0  0  0  0  0  0  0  0  0  0  0  0
   -2.3491   -0.0564    0.0000 H   0  0  0  0  0  0  0  0  0  0  0  0
   -2.5168   -0.9159    0.0000 H   0  0  0  0  0  0  0  0  0  0  0  0
   -2.3162   -1.6115    0.0000 H   0  0  0  0  0  0  0  0  0  0  0  0
   -1.6504   -2.3097    0.0000 H   0  0  0  0  0  0  0  0  0  0  0  0
   -0.8916   -2.4582    0.0000 H   0  0  0  0  0  0  0  0  0  0  0  0
   -0.5495   -2.5089    0.0000 H   0  0  0  0  0  0  0  0  0  0  0  0
    0.0595   -2.8817    0.0000 H   0  0  0  0  0  0  0  0  0  0  0  0
    0.9900   -2.9794    0.0000 H   0  0  0  0  0  0  0  0  0  0  0  0
    1.6669   -2.6760    0.0000 H   0  0  0  0  0  0  0  0  0  0  0  0
    2.1475   -2.4294    0.0000 H   0  0  0  0  0  0  0  0  0  0  0  0
    3.1483   -1.8298    0.0000 H   0  0  0  0  0  0  0  0  0  0  0  0
    2.5487   -0.8290    0.0000 H   0  0  0  0  0  0  0  0  0  0  0  0
   -0.6794    1.5868    0.0000 H   0  0  0  0  0  0  0  0  0  0  0  0
    0.8306    1.6370    0.0000 H   0  0  0  0  0  0  0  0  0  0  0  0
   -1.2749    2.2124    0.0000 H   0  0  0  0  0  0  0  0  0  0  0  0
   -1.1486    3.8576    0.0000 H   0  0  0  0  0  0  0  0  0  0  0  0
    0.3394    4.5707    0.0000 H   0  0  0  0  0  0  0  0  0  0  0  0
    1.7009    3.6387    0.0000 H   0  0  0  0  0  0  0  0  0  0  0  0
    1.7163    2.3964    0.0000 H   0  0  0  0  0  0  0  0  0  0  0  0
  1 23  1  0  0  0  0
  1 24  1  0  0  0  0
  1  2  1  0  0  0  0
 12  1  1  0  0  0  0
  2  3  1  0  0  0  0
  2 27  1  0  0  0  0
  2 28  1  0  0  0  0
  3  4  1  0  0  0  0
  3 29  1  0  0  0  0
  3 30  1  0  0  0  0
  5  4  1  0  0  0  0
  4 31  1  0  0  0  0
  4 32  1  0  0  0  0
  5 25  1  6  0  0  0
  5  6  1  0  0  0  0
 12  5  1  0  0  0  0
  6  7  1  0  0  0  0
  6 33  1  0  0  0  0
  6 34  1  0  0  0  0
  8  7  1  0  0  0  0
  7 35  1  0  0  0  0
  7 36  1  0  0  0  0
  8  9  1  6  0  0  0
  8 10  1  0  0  0  0
  8 22  1  0  0  0  0
  9 37  1  0  0  0  0
  9 38  1  0  0  0  0
  9 39  1  0  0  0  0
 10 11  1  0  0  0  0
 12 11  1  6  0  0  0
 12 13  1  0  0  0  0
 13 26  1  1  0  0  0
 13 14  1  0  0  0  0
 13 22  1  0  0  0  0
 14 15  1  0  0  0  0
 15 16  1  0  0  0  0
 15 40  1  0  0  0  0
 15 41  1  0  0  0  0
 16 17  1  0  0  0  0
 16 21  2  0  0  0  0
 17 18  2  0  0  0  0
 17 42  1  0  0  0  0
 18 19  1  0  0  0  0
 18 43  1  0  0  0  0
 19 20  2  0  0  0  0
 19 44  1  0  0  0  0
 20 21  1  0  0  0  0
 20 45  1  0  0  0  0
 21 46  1  0  0  0  0
M  END
