
  Mrv171c004271813302D          

 67 71  0  0  0  0            999 V2000
   -0.3725    1.1623    0.0000 C   0  0  2  0  0  0  0  0  0  0  0  0
   -0.4357    0.3397    0.0000 O   0  0  0  0  0  0  0  0  0  0  0  0
   -1.1796   -0.0169    0.0000 C   0  0  0  0  0  0  0  0  0  0  0  0
   -1.0991    1.6916    0.0000 O   0  0  0  0  0  0  0  0  0  0  0  0
   -1.2161    2.5827    0.0000 C   0  0  1  0  0  0  0  0  0  0  0  0
   -2.0164    2.7833    0.0000 C   0  0  0  0  0  0  0  0  0  0  0  0
   -0.6953    3.3093    0.0000 C   0  0  0  0  0  0  0  0  0  0  0  0
    0.1884    3.2151    0.0000 C   0  0  0  0  0  0  0  0  0  0  0  0
    0.6793    2.4630    0.0000 C   0  0  1  0  0  0  0  0  0  0  0  0
    1.4628    2.8228    0.0000 C   0  0  0  0  0  0  0  0  0  0  0  0
    2.0359    2.2124    0.0000 C   0  0  0  0  0  0  0  0  0  0  0  0
    1.8751    1.3876    0.0000 C   0  0  0  0  0  0  0  0  0  0  0  0
    1.1096    1.0462    0.0000 C   0  0  1  0  0  0  0  0  0  0  0  0
    1.0049    0.2278    0.0000 C   0  0  0  0  0  0  0  0  0  0  0  0
    0.2439   -0.0907    0.0000 C   0  0  0  0  0  0  0  0  0  0  0  0
    0.1392   -0.9090    0.0000 O   0  0  0  0  0  0  0  0  0  0  0  0
   -0.6218   -1.2275    0.0000 C   0  0  0  0  0  0  0  0  0  0  0  0
   -1.2782   -0.7277    0.0000 O   0  0  0  0  0  0  0  0  0  0  0  0
   -0.7265   -2.0459    0.0000 N   0  0  0  0  0  0  0  0  0  0  0  0
   -1.4875   -2.3644    0.0000 C   0  0  0  0  0  0  0  0  0  0  0  0
   -1.5922   -3.1827    0.0000 C   0  0  0  0  0  0  0  0  0  0  0  0
   -2.3532   -3.5012    0.0000 C   0  0  0  0  0  0  0  0  0  0  0  0
   -3.0096   -3.0014    0.0000 C   0  0  0  0  0  0  0  0  0  0  0  0
   -2.9049   -2.1831    0.0000 C   0  0  0  0  0  0  0  0  0  0  0  0
   -2.1439   -1.8646    0.0000 C   0  0  0  0  0  0  0  0  0  0  0  0
   -0.0701   -2.5457    0.0000 C   0  0  0  0  0  0  0  0  0  0  0  0
    0.6909   -2.2272    0.0000 C   0  0  0  0  0  0  0  0  0  0  0  0
    1.3473   -2.7270    0.0000 C   0  0  0  0  0  0  0  0  0  0  0  0
    1.2426   -3.5453    0.0000 C   0  0  0  0  0  0  0  0  0  0  0  0
    0.4816   -3.8638    0.0000 C   0  0  0  0  0  0  0  0  0  0  0  0
   -0.1748   -3.3640    0.0000 C   0  0  0  0  0  0  0  0  0  0  0  0
    0.4397    1.5812    0.0000 C   0  0  1  0  0  0  0  0  0  0  0  0
   -0.2915    1.8644    0.0000 O   0  0  0  0  0  0  0  0  0  0  0  0
   -0.4223    2.6311    0.0000 O   0  0  0  0  0  0  0  0  0  0  0  0
    0.3151    0.7063    0.0000 H   0  0  0  0  0  0  0  0  0  0  0  0
   -0.1357    2.3344    0.0000 H   0  0  0  0  0  0  0  0  0  0  0  0
    1.7717    0.5540    0.0000 H   0  0  0  0  0  0  0  0  0  0  0  0
   -1.1039    0.8046    0.0000 H   0  0  0  0  0  0  0  0  0  0  0  0
   -1.8459    0.4697    0.0000 H   0  0  0  0  0  0  0  0  0  0  0  0
   -1.9391   -0.3390    0.0000 H   0  0  0  0  0  0  0  0  0  0  0  0
   -1.8158    3.5835    0.0000 H   0  0  0  0  0  0  0  0  0  0  0  0
   -2.8166    2.9839    0.0000 H   0  0  0  0  0  0  0  0  0  0  0  0
   -2.2170    1.9831    0.0000 H   0  0  0  0  0  0  0  0  0  0  0  0
   -0.6582    4.1335    0.0000 H   0  0  0  0  0  0  0  0  0  0  0  0
   -1.3352    3.8301    0.0000 H   0  0  0  0  0  0  0  0  0  0  0  0
    0.8813    3.6630    0.0000 H   0  0  0  0  0  0  0  0  0  0  0  0
    0.2723    4.0359    0.0000 H   0  0  0  0  0  0  0  0  0  0  0  0
    1.9821    3.4638    0.0000 H   0  0  0  0  0  0  0  0  0  0  0  0
    1.2234    3.6123    0.0000 H   0  0  0  0  0  0  0  0  0  0  0  0
    2.8485    2.0700    0.0000 H   0  0  0  0  0  0  0  0  0  0  0  0
    2.6480    2.7656    0.0000 H   0  0  0  0  0  0  0  0  0  0  0  0
    2.2289    0.6423    0.0000 H   0  0  0  0  0  0  0  0  0  0  0  0
    2.6808    1.2105    0.0000 H   0  0  0  0  0  0  0  0  0  0  0  0
    1.0458   -0.5961    0.0000 H   0  0  0  0  0  0  0  0  0  0  0  0
    1.5667   -0.3764    0.0000 H   0  0  0  0  0  0  0  0  0  0  0  0
   -0.5766   -0.1770    0.0000 H   0  0  0  0  0  0  0  0  0  0  0  0
   -0.3460   -0.6675    0.0000 H   0  0  0  0  0  0  0  0  0  0  0  0
   -0.9358   -3.6825    0.0000 H   0  0  0  0  0  0  0  0  0  0  0  0
   -2.4579   -4.3196    0.0000 H   0  0  0  0  0  0  0  0  0  0  0  0
   -3.7706   -3.3200    0.0000 H   0  0  0  0  0  0  0  0  0  0  0  0
   -3.5613   -1.6833    0.0000 H   0  0  0  0  0  0  0  0  0  0  0  0
   -2.0392   -1.0462    0.0000 H   0  0  0  0  0  0  0  0  0  0  0  0
    0.7956   -1.4088    0.0000 H   0  0  0  0  0  0  0  0  0  0  0  0
    2.1083   -2.4085    0.0000 H   0  0  0  0  0  0  0  0  0  0  0  0
    1.8990   -4.0451    0.0000 H   0  0  0  0  0  0  0  0  0  0  0  0
    0.3769   -4.6822    0.0000 H   0  0  0  0  0  0  0  0  0  0  0  0
   -0.8311   -2.8642    0.0000 H   0  0  0  0  0  0  0  0  0  0  0  0
  1 35  1  1  0  0  0
  1  2  1  0  0  0  0
  1  4  1  0  0  0  0
 32  1  1  0  0  0  0
  2  3  1  0  0  0  0
  3 38  1  0  0  0  0
  3 39  1  0  0  0  0
  3 40  1  0  0  0  0
  5  4  1  0  0  0  0
  5  6  1  6  0  0  0
  5  7  1  0  0  0  0
  5 34  1  0  0  0  0
  6 41  1  0  0  0  0
  6 42  1  0  0  0  0
  6 43  1  0  0  0  0
  7  8  1  0  0  0  0
  7 44  1  0  0  0  0
  7 45  1  0  0  0  0
  9  8  1  0  0  0  0
  8 46  1  0  0  0  0
  8 47  1  0  0  0  0
  9 36  1  6  0  0  0
  9 10  1  0  0  0  0
 32  9  1  0  0  0  0
 10 11  1  0  0  0  0
 10 48  1  0  0  0  0
 10 49  1  0  0  0  0
 11 12  1  0  0  0  0
 11 50  1  0  0  0  0
 11 51  1  0  0  0  0
 13 12  1  0  0  0  0
 12 52  1  0  0  0  0
 12 53  1  0  0  0  0
 13 37  1  6  0  0  0
 13 14  1  0  0  0  0
 32 13  1  0  0  0  0
 14 15  1  0  0  0  0
 14 54  1  0  0  0  0
 14 55  1  0  0  0  0
 15 16  1  0  0  0  0
 15 56  1  0  0  0  0
 15 57  1  0  0  0  0
 16 17  1  0  0  0  0
 17 18  2  0  0  0  0
 17 19  1  0  0  0  0
 19 20  1  0  0  0  0
 19 26  1  0  0  0  0
 20 21  1  0  0  0  0
 20 25  2  0  0  0  0
 21 22  2  0  0  0  0
 21 58  1  0  0  0  0
 22 23  1  0  0  0  0
 22 59  1  0  0  0  0
 23 24  2  0  0  0  0
 23 60  1  0  0  0  0
 24 25  1  0  0  0  0
 24 61  1  0  0  0  0
 25 62  1  0  0  0  0
 26 27  1  0  0  0  0
 26 31  2  0  0  0  0
 27 28  2  0  0  0  0
 27 63  1  0  0  0  0
 28 29  1  0  0  0  0
 28 64  1  0  0  0  0
 29 30  2  0  0  0  0
 29 65  1  0  0  0  0
 30 31  1  0  0  0  0
 30 66  1  0  0  0  0
 31 67  1  0  0  0  0
 32 33  1  6  0  0  0
 33 34  1  0  0  0  0
M  END
