
  Mrv171c004271813302D          

 49 52  0  0  0  0            999 V2000
   -3.5045    0.9122    0.0000 C   0  0  0  0  0  0  0  0  0  0  0  0
   -2.7220    0.6507    0.0000 C   0  0  0  0  0  0  0  0  0  0  0  0
   -2.1044    1.1976    0.0000 O   0  0  0  0  0  0  0  0  0  0  0  0
   -1.3219    0.9362    0.0000 C   0  0  1  0  0  0  0  0  0  0  0  0
   -0.6167    1.3938    0.0000 O   0  0  0  0  0  0  0  0  0  0  0  0
    0.1981    1.1232    0.0000 C   0  0  2  0  0  0  0  0  0  0  0  0
    1.1308    0.9025    0.0000 O   0  0  0  0  0  0  0  0  0  0  0  0
    1.9628    1.1154    0.0000 C   0  0  1  0  0  0  0  0  0  0  0  0
    2.6482    1.5745    0.0000 C   0  0  0  0  0  0  0  0  0  0  0  0
    2.4486    0.4176    0.0000 C   0  0  0  0  0  0  0  0  0  0  0  0
    1.9598   -0.2714    0.0000 C   0  0  0  0  0  0  0  0  0  0  0  0
    1.1023   -0.2826    0.0000 C   0  0  1  0  0  0  0  0  0  0  0  0
    0.9859   -1.1299    0.0000 C   0  0  1  0  0  0  0  0  0  0  0  0
    1.6743   -1.5845    0.0000 C   0  0  0  0  0  0  0  0  0  0  0  0
    0.2667   -1.5610    0.0000 C   0  0  0  0  0  0  0  0  0  0  0  0
    0.1464   -2.3772    0.0000 O   0  0  0  0  0  0  0  0  0  0  0  0
   -0.2969   -0.9415    0.0000 C   0  0  0  0  0  0  0  0  0  0  0  0
   -0.2007   -0.0866    0.0000 C   0  0  1  0  0  0  0  0  0  0  0  0
   -1.0333    0.1461    0.0000 C   0  0  1  0  0  0  0  0  0  0  0  0
   -1.5936   -0.4595    0.0000 C   0  0  0  0  0  0  0  0  0  0  0  0
    0.5416    0.4128    0.0000 C   0  0  1  0  0  0  0  0  0  0  0  0
    0.7802    1.3637    0.0000 O   0  0  0  0  0  0  0  0  0  0  0  0
    1.5064    1.8240    0.0000 O   0  0  0  0  0  0  0  0  0  0  0  0
   -1.8971    0.3448    0.0000 H   0  0  0  0  0  0  0  0  0  0  0  0
    1.4534    0.4640    0.0000 H   0  0  0  0  0  0  0  0  0  0  0  0
   -0.8086   -0.6478    0.0000 H   0  0  0  0  0  0  0  0  0  0  0  0
   -3.2430    1.6947    0.0000 H   0  0  0  0  0  0  0  0  0  0  0  0
   -4.2870    1.1737    0.0000 H   0  0  0  0  0  0  0  0  0  0  0  0
   -3.7660    0.1297    0.0000 H   0  0  0  0  0  0  0  0  0  0  0  0
   -2.9376   -0.1456    0.0000 H   0  0  0  0  0  0  0  0  0  0  0  0
   -2.2120    0.0023    0.0000 H   0  0  0  0  0  0  0  0  0  0  0  0
    0.1688    1.9476    0.0000 H   0  0  0  0  0  0  0  0  0  0  0  0
    3.1074    0.8891    0.0000 H   0  0  0  0  0  0  0  0  0  0  0  0
    3.3337    2.0336    0.0000 H   0  0  0  0  0  0  0  0  0  0  0  0
    2.1891    2.2600    0.0000 H   0  0  0  0  0  0  0  0  0  0  0  0
    2.7075   -0.3657    0.0000 H   0  0  0  0  0  0  0  0  0  0  0  0
    3.2329    0.1619    0.0000 H   0  0  0  0  0  0  0  0  0  0  0  0
    1.5238   -0.9718    0.0000 H   0  0  0  0  0  0  0  0  0  0  0  0
    2.3144   -1.0163    0.0000 H   0  0  0  0  0  0  0  0  0  0  0  0
    0.2974   -0.6752    0.0000 H   0  0  0  0  0  0  0  0  0  0  0  0
    0.9621   -2.0010    0.0000 H   0  0  0  0  0  0  0  0  0  0  0  0
    1.7330   -2.4074    0.0000 H   0  0  0  0  0  0  0  0  0  0  0  0
    2.4384   -1.8957    0.0000 H   0  0  0  0  0  0  0  0  0  0  0  0
   -1.1148   -0.8342    0.0000 H   0  0  0  0  0  0  0  0  0  0  0  0
   -0.8968   -1.5078    0.0000 H   0  0  0  0  0  0  0  0  0  0  0  0
   -0.3320    0.7279    0.0000 H   0  0  0  0  0  0  0  0  0  0  0  0
   -2.4107   -0.5732    0.0000 H   0  0  0  0  0  0  0  0  0  0  0  0
   -2.0947   -1.1149    0.0000 H   0  0  0  0  0  0  0  0  0  0  0  0
   -1.4891   -1.2779    0.0000 H   0  0  0  0  0  0  0  0  0  0  0  0
  1  2  1  0  0  0  0
  1 27  1  0  0  0  0
  1 28  1  0  0  0  0
  1 29  1  0  0  0  0
  2  3  1  0  0  0  0
  2 30  1  0  0  0  0
  2 31  1  0  0  0  0
  4  3  1  1  0  0  0
  4 24  1  6  0  0  0
  4  5  1  0  0  0  0
 19  4  1  0  0  0  0
  6  5  1  0  0  0  0
  6  7  1  0  0  0  0
 21  6  1  0  0  0  0
  6 32  1  1  0  0  0
  8  7  1  0  0  0  0
  8  9  1  1  0  0  0
  8 10  1  0  0  0  0
  8 23  1  0  0  0  0
  9 33  1  0  0  0  0
  9 34  1  0  0  0  0
  9 35  1  0  0  0  0
 10 11  1  0  0  0  0
 10 36  1  0  0  0  0
 10 37  1  0  0  0  0
 12 11  1  0  0  0  0
 11 38  1  0  0  0  0
 11 39  1  0  0  0  0
 12 25  1  6  0  0  0
 12 13  1  0  0  0  0
 21 12  1  0  0  0  0
 13 14  1  0  0  0  0
 13 15  1  1  0  0  0
 13 40  1  6  0  0  0
 14 41  1  0  0  0  0
 14 42  1  0  0  0  0
 14 43  1  0  0  0  0
 15 16  2  0  0  0  0
 15 17  1  0  0  0  0
 18 17  1  0  0  0  0
 17 44  1  0  0  0  0
 17 45  1  0  0  0  0
 18 19  1  0  0  0  0
 21 18  1  0  0  0  0
 18 46  1  6  0  0  0
 19 26  1  6  0  0  0
 19 20  1  1  0  0  0
 20 47  1  0  0  0  0
 20 48  1  0  0  0  0
 20 49  1  0  0  0  0
 21 22  1  6  0  0  0
 22 23  1  0  0  0  0
M  END
