
  Mrv171c004271813302D          

 56 59  0  0  0  0            999 V2000
   -0.9546   -0.4764    0.0000 C   0  0  0  0  0  0  0  0  0  0  0  0
   -1.6354   -0.0104    0.0000 O   0  0  0  0  0  0  0  0  0  0  0  0
   -1.5722    0.8122    0.0000 C   0  0  1  0  0  0  0  0  0  0  0  0
   -2.2988    1.3415    0.0000 O   0  0  0  0  0  0  0  0  0  0  0  0
   -2.4159    2.2326    0.0000 C   0  0  1  0  0  0  0  0  0  0  0  0
   -3.2161    2.4332    0.0000 C   0  0  0  0  0  0  0  0  0  0  0  0
   -1.8950    2.9592    0.0000 C   0  0  0  0  0  0  0  0  0  0  0  0
   -1.0113    2.8651    0.0000 C   0  0  0  0  0  0  0  0  0  0  0  0
   -0.5205    2.1129    0.0000 C   0  0  1  0  0  0  0  0  0  0  0  0
    0.2631    2.4727    0.0000 C   0  0  0  0  0  0  0  0  0  0  0  0
    0.8362    1.8624    0.0000 C   0  0  0  0  0  0  0  0  0  0  0  0
    0.6753    1.0375    0.0000 C   0  0  0  0  0  0  0  0  0  0  0  0
   -0.0901    0.6961    0.0000 C   0  0  1  0  0  0  0  0  0  0  0  0
   -0.1948   -0.1222    0.0000 C   0  0  0  0  0  0  0  0  0  0  0  0
    0.4615   -0.6220    0.0000 C   0  0  0  0  0  0  0  0  0  0  0  0
    0.3569   -1.4404    0.0000 O   0  0  0  0  0  0  0  0  0  0  0  0
    1.0132   -1.9402    0.0000 C   0  0  0  0  0  0  0  0  0  0  0  0
    0.9086   -2.7585    0.0000 C   0  0  0  0  0  0  0  0  0  0  0  0
    1.5649   -3.2583    0.0000 C   0  0  0  0  0  0  0  0  0  0  0  0
    1.4603   -4.0767    0.0000 C   0  0  0  0  0  0  0  0  0  0  0  0
    0.6992   -4.3952    0.0000 C   0  0  0  0  0  0  0  0  0  0  0  0
    0.5946   -5.2135    0.0000 F   0  0  0  0  0  0  0  0  0  0  0  0
    0.0429   -3.8954    0.0000 C   0  0  0  0  0  0  0  0  0  0  0  0
    0.1475   -3.0770    0.0000 C   0  0  0  0  0  0  0  0  0  0  0  0
   -0.7600    1.2312    0.0000 C   0  0  1  0  0  0  0  0  0  0  0  0
   -1.4912    1.5143    0.0000 O   0  0  0  0  0  0  0  0  0  0  0  0
   -1.6220    2.2810    0.0000 O   0  0  0  0  0  0  0  0  0  0  0  0
   -0.8847    0.3562    0.0000 H   0  0  0  0  0  0  0  0  0  0  0  0
   -1.3354    1.9843    0.0000 H   0  0  0  0  0  0  0  0  0  0  0  0
    0.5720    0.2039    0.0000 H   0  0  0  0  0  0  0  0  0  0  0  0
   -1.6996   -0.8309    0.0000 H   0  0  0  0  0  0  0  0  0  0  0  0
   -1.0223   -1.2986    0.0000 H   0  0  0  0  0  0  0  0  0  0  0  0
   -0.2776   -0.9479    0.0000 H   0  0  0  0  0  0  0  0  0  0  0  0
   -3.0155    3.2335    0.0000 H   0  0  0  0  0  0  0  0  0  0  0  0
   -4.0164    2.6338    0.0000 H   0  0  0  0  0  0  0  0  0  0  0  0
   -3.4168    1.6330    0.0000 H   0  0  0  0  0  0  0  0  0  0  0  0
   -1.8580    3.7834    0.0000 H   0  0  0  0  0  0  0  0  0  0  0  0
   -2.5349    3.4800    0.0000 H   0  0  0  0  0  0  0  0  0  0  0  0
   -0.3185    3.3129    0.0000 H   0  0  0  0  0  0  0  0  0  0  0  0
   -0.9275    3.6858    0.0000 H   0  0  0  0  0  0  0  0  0  0  0  0
    0.7824    3.1138    0.0000 H   0  0  0  0  0  0  0  0  0  0  0  0
    0.0236    3.2622    0.0000 H   0  0  0  0  0  0  0  0  0  0  0  0
    1.6488    1.7199    0.0000 H   0  0  0  0  0  0  0  0  0  0  0  0
    1.4482    2.4156    0.0000 H   0  0  0  0  0  0  0  0  0  0  0  0
    1.0292    0.2923    0.0000 H   0  0  0  0  0  0  0  0  0  0  0  0
    1.4811    0.8604    0.0000 H   0  0  0  0  0  0  0  0  0  0  0  0
   -0.5302    0.6315    0.0000 H   0  0  0  0  0  0  0  0  0  0  0  0
   -1.0168   -0.0521    0.0000 H   0  0  0  0  0  0  0  0  0  0  0  0
    1.1170   -1.1231    0.0000 H   0  0  0  0  0  0  0  0  0  0  0  0
    1.2238   -0.3064    0.0000 H   0  0  0  0  0  0  0  0  0  0  0  0
    1.7466   -2.3182    0.0000 H   0  0  0  0  0  0  0  0  0  0  0  0
    1.8179   -1.7582    0.0000 H   0  0  0  0  0  0  0  0  0  0  0  0
    2.3795   -3.3890    0.0000 H   0  0  0  0  0  0  0  0  0  0  0  0
    2.1166   -4.5765    0.0000 H   0  0  0  0  0  0  0  0  0  0  0  0
   -0.7182   -4.2139    0.0000 H   0  0  0  0  0  0  0  0  0  0  0  0
   -0.5088   -2.5772    0.0000 H   0  0  0  0  0  0  0  0  0  0  0  0
  1  2  1  0  0  0  0
  1 31  1  0  0  0  0
  1 32  1  0  0  0  0
  1 33  1  0  0  0  0
  3  2  1  0  0  0  0
  3 28  1  6  0  0  0
  3  4  1  0  0  0  0
 25  3  1  0  0  0  0
  5  4  1  0  0  0  0
  5  6  1  6  0  0  0
  5  7  1  0  0  0  0
  5 27  1  0  0  0  0
  6 34  1  0  0  0  0
  6 35  1  0  0  0  0
  6 36  1  0  0  0  0
  7  8  1  0  0  0  0
  7 37  1  0  0  0  0
  7 38  1  0  0  0  0
  9  8  1  0  0  0  0
  8 39  1  0  0  0  0
  8 40  1  0  0  0  0
  9 29  1  6  0  0  0
  9 10  1  0  0  0  0
 25  9  1  0  0  0  0
 10 11  1  0  0  0  0
 10 41  1  0  0  0  0
 10 42  1  0  0  0  0
 11 12  1  0  0  0  0
 11 43  1  0  0  0  0
 11 44  1  0  0  0  0
 13 12  1  0  0  0  0
 12 45  1  0  0  0  0
 12 46  1  0  0  0  0
 13 30  1  6  0  0  0
 13 14  1  0  0  0  0
 25 13  1  0  0  0  0
 14 15  1  0  0  0  0
 14 47  1  0  0  0  0
 14 48  1  0  0  0  0
 15 16  1  0  0  0  0
 15 49  1  0  0  0  0
 15 50  1  0  0  0  0
 16 17  1  0  0  0  0
 17 18  1  0  0  0  0
 17 51  1  0  0  0  0
 17 52  1  0  0  0  0
 18 19  1  0  0  0  0
 18 24  2  0  0  0  0
 19 20  2  0  0  0  0
 19 53  1  0  0  0  0
 20 21  1  0  0  0  0
 20 54  1  0  0  0  0
 21 22  1  0  0  0  0
 21 23  2  0  0  0  0
 23 24  1  0  0  0  0
 23 55  1  0  0  0  0
 24 56  1  0  0  0  0
 25 26  1  6  0  0  0
 26 27  1  0  0  0  0
M  END
