
  Mrv171c004271813302D          

 50 53  0  0  0  0            999 V2000
   -3.4248    0.9901    0.0000 C   0  0  0  0  0  0  0  0  0  0  0  0
   -2.6423    0.7287    0.0000 C   0  0  0  0  0  0  0  0  0  0  0  0
   -2.0246    1.2756    0.0000 O   0  0  0  0  0  0  0  0  0  0  0  0
   -1.2421    1.0141    0.0000 C   0  0  1  0  0  0  0  0  0  0  0  0
   -0.5370    1.4717    0.0000 O   0  0  0  0  0  0  0  0  0  0  0  0
    0.2778    1.2011    0.0000 C   0  0  2  0  0  0  0  0  0  0  0  0
    1.2105    0.9804    0.0000 O   0  0  0  0  0  0  0  0  0  0  0  0
    2.0425    1.1934    0.0000 C   0  0  1  0  0  0  0  0  0  0  0  0
    2.7280    1.6525    0.0000 C   0  0  0  0  0  0  0  0  0  0  0  0
    2.5283    0.4956    0.0000 C   0  0  0  0  0  0  0  0  0  0  0  0
    2.0395   -0.1934    0.0000 C   0  0  0  0  0  0  0  0  0  0  0  0
    1.1820   -0.2046    0.0000 C   0  0  1  0  0  0  0  0  0  0  0  0
    1.0656   -1.0519    0.0000 C   0  0  1  0  0  0  0  0  0  0  0  0
    1.7540   -1.5065    0.0000 C   0  0  0  0  0  0  0  0  0  0  0  0
    0.3464   -1.4831    0.0000 C   0  0  0  0  0  0  0  0  0  0  0  0
    0.8164   -2.1612    0.0000 F   0  0  0  0  0  0  0  0  0  0  0  0
   -0.2992   -1.9968    0.0000 F   0  0  0  0  0  0  0  0  0  0  0  0
   -0.2171   -0.8636    0.0000 C   0  0  0  0  0  0  0  0  0  0  0  0
   -0.1210   -0.0087    0.0000 C   0  0  1  0  0  0  0  0  0  0  0  0
   -0.9536    0.2240    0.0000 C   0  0  1  0  0  0  0  0  0  0  0  0
   -1.5139   -0.3816    0.0000 C   0  0  0  0  0  0  0  0  0  0  0  0
    0.6214    0.4908    0.0000 C   0  0  1  0  0  0  0  0  0  0  0  0
    0.8600    1.4416    0.0000 O   0  0  0  0  0  0  0  0  0  0  0  0
    1.5861    1.9020    0.0000 O   0  0  0  0  0  0  0  0  0  0  0  0
   -1.8174    0.4227    0.0000 H   0  0  0  0  0  0  0  0  0  0  0  0
    1.5331    0.5419    0.0000 H   0  0  0  0  0  0  0  0  0  0  0  0
   -0.7289   -0.5698    0.0000 H   0  0  0  0  0  0  0  0  0  0  0  0
   -3.1633    1.7726    0.0000 H   0  0  0  0  0  0  0  0  0  0  0  0
   -4.2072    1.2516    0.0000 H   0  0  0  0  0  0  0  0  0  0  0  0
   -3.6862    0.2077    0.0000 H   0  0  0  0  0  0  0  0  0  0  0  0
   -2.8578   -0.0677    0.0000 H   0  0  0  0  0  0  0  0  0  0  0  0
   -2.1322    0.0802    0.0000 H   0  0  0  0  0  0  0  0  0  0  0  0
    0.2485    2.0256    0.0000 H   0  0  0  0  0  0  0  0  0  0  0  0
    3.1871    0.9670    0.0000 H   0  0  0  0  0  0  0  0  0  0  0  0
    3.4134    2.1116    0.0000 H   0  0  0  0  0  0  0  0  0  0  0  0
    2.2689    2.3379    0.0000 H   0  0  0  0  0  0  0  0  0  0  0  0
    2.7873   -0.2877    0.0000 H   0  0  0  0  0  0  0  0  0  0  0  0
    3.3127    0.2398    0.0000 H   0  0  0  0  0  0  0  0  0  0  0  0
    1.6036   -0.8939    0.0000 H   0  0  0  0  0  0  0  0  0  0  0  0
    2.3941   -0.9383    0.0000 H   0  0  0  0  0  0  0  0  0  0  0  0
    0.3772   -0.5973    0.0000 H   0  0  0  0  0  0  0  0  0  0  0  0
    1.0419   -1.9230    0.0000 H   0  0  0  0  0  0  0  0  0  0  0  0
    1.8127   -2.3295    0.0000 H   0  0  0  0  0  0  0  0  0  0  0  0
    2.5181   -1.8178    0.0000 H   0  0  0  0  0  0  0  0  0  0  0  0
   -1.0351   -0.7563    0.0000 H   0  0  0  0  0  0  0  0  0  0  0  0
   -0.8170   -1.4299    0.0000 H   0  0  0  0  0  0  0  0  0  0  0  0
   -0.2523    0.8058    0.0000 H   0  0  0  0  0  0  0  0  0  0  0  0
   -2.3310   -0.4953    0.0000 H   0  0  0  0  0  0  0  0  0  0  0  0
   -2.0150   -1.0370    0.0000 H   0  0  0  0  0  0  0  0  0  0  0  0
   -1.4094   -1.1999    0.0000 H   0  0  0  0  0  0  0  0  0  0  0  0
  1  2  1  0  0  0  0
  1 28  1  0  0  0  0
  1 29  1  0  0  0  0
  1 30  1  0  0  0  0
  2  3  1  0  0  0  0
  2 31  1  0  0  0  0
  2 32  1  0  0  0  0
  4  3  1  1  0  0  0
  4 25  1  6  0  0  0
  4  5  1  0  0  0  0
 20  4  1  0  0  0  0
  6  5  1  0  0  0  0
  6  7  1  0  0  0  0
 22  6  1  0  0  0  0
  6 33  1  1  0  0  0
  8  7  1  0  0  0  0
  8  9  1  1  0  0  0
  8 10  1  0  0  0  0
  8 24  1  0  0  0  0
  9 34  1  0  0  0  0
  9 35  1  0  0  0  0
  9 36  1  0  0  0  0
 10 11  1  0  0  0  0
 10 37  1  0  0  0  0
 10 38  1  0  0  0  0
 12 11  1  0  0  0  0
 11 39  1  0  0  0  0
 11 40  1  0  0  0  0
 12 26  1  6  0  0  0
 12 13  1  0  0  0  0
 22 12  1  0  0  0  0
 13 14  1  0  0  0  0
 13 15  1  1  0  0  0
 13 41  1  6  0  0  0
 14 42  1  0  0  0  0
 14 43  1  0  0  0  0
 14 44  1  0  0  0  0
 15 16  1  0  0  0  0
 15 17  1  0  0  0  0
 15 18  1  0  0  0  0
 19 18  1  0  0  0  0
 18 45  1  0  0  0  0
 18 46  1  0  0  0  0
 19 20  1  0  0  0  0
 22 19  1  0  0  0  0
 19 47  1  6  0  0  0
 20 27  1  6  0  0  0
 20 21  1  1  0  0  0
 21 48  1  0  0  0  0
 21 49  1  0  0  0  0
 21 50  1  0  0  0  0
 22 23  1  6  0  0  0
 23 24  1  0  0  0  0
M  END
