
  Mrv171c004271813302D          

 41 44  0  0  0  0            999 V2000
    1.8876   -0.7251    0.0000 O   0  0  0  0  0  0  0  0  0  0  0  0
    1.2426   -0.2107    0.0000 S   0  0  0  0  0  0  0  0  0  0  0  0
    1.8876    0.3036    0.0000 O   0  0  0  0  0  0  0  0  0  0  0  0
    0.8847   -0.9540    0.0000 C   0  0  0  0  0  0  0  0  0  0  0  0
    0.0804   -1.1376    0.0000 C   0  0  2  0  0  0  0  0  0  0  0  0
   -0.1032   -1.9419    0.0000 C   0  0  0  0  0  0  0  0  0  0  0  0
    0.5016   -2.5031    0.0000 C   0  0  0  0  0  0  0  0  0  0  0  0
    0.3180   -3.3074    0.0000 C   0  0  0  0  0  0  0  0  0  0  0  0
   -0.4704   -3.5506    0.0000 C   0  0  0  0  0  0  0  0  0  0  0  0
   -1.0751   -2.9894    0.0000 C   0  0  0  0  0  0  0  0  0  0  0  0
   -0.8916   -2.1851    0.0000 C   0  0  0  0  0  0  0  0  0  0  0  0
   -0.5646   -0.6232    0.0000 C   0  0  0  0  0  0  0  0  0  0  0  0
   -0.5646    0.2018    0.0000 C   0  0  0  0  0  0  0  0  0  0  0  0
    0.0804    0.7161    0.0000 C   0  0  2  0  0  0  0  0  0  0  0  0
   -0.1032    1.5205    0.0000 C   0  0  0  0  0  0  0  0  0  0  0  0
   -0.8916    1.7636    0.0000 C   0  0  0  0  0  0  0  0  0  0  0  0
   -1.0751    2.5679    0.0000 C   0  0  0  0  0  0  0  0  0  0  0  0
   -0.4704    3.1291    0.0000 C   0  0  0  0  0  0  0  0  0  0  0  0
    0.3180    2.8859    0.0000 C   0  0  0  0  0  0  0  0  0  0  0  0
    0.5016    2.0816    0.0000 C   0  0  0  0  0  0  0  0  0  0  0  0
    0.8847    0.5326    0.0000 C   0  0  0  0  0  0  0  0  0  0  0  0
    0.2348    0.0982    0.0000 O   0  0  0  0  0  0  0  0  0  0  0  0
    0.2348   -0.5197    0.0000 O   0  0  0  0  0  0  0  0  0  0  0  0
    1.0683   -1.7584    0.0000 H   0  0  0  0  0  0  0  0  0  0  0  0
    1.6280   -1.3120    0.0000 H   0  0  0  0  0  0  0  0  0  0  0  0
    1.2489   -2.8526    0.0000 H   0  0  0  0  0  0  0  0  0  0  0  0
    0.9227   -3.8685    0.0000 H   0  0  0  0  0  0  0  0  0  0  0  0
   -0.6540   -4.3549    0.0000 H   0  0  0  0  0  0  0  0  0  0  0  0
   -1.8635   -3.2326    0.0000 H   0  0  0  0  0  0  0  0  0  0  0  0
   -1.4963   -1.6240    0.0000 H   0  0  0  0  0  0  0  0  0  0  0  0
   -1.3896   -0.6232    0.0000 H   0  0  0  0  0  0  0  0  0  0  0  0
   -1.0790   -1.2683    0.0000 H   0  0  0  0  0  0  0  0  0  0  0  0
   -1.0790    0.8468    0.0000 H   0  0  0  0  0  0  0  0  0  0  0  0
   -1.3896    0.2018    0.0000 H   0  0  0  0  0  0  0  0  0  0  0  0
   -1.7165    1.7543    0.0000 H   0  0  0  0  0  0  0  0  0  0  0  0
   -1.8635    2.8111    0.0000 H   0  0  0  0  0  0  0  0  0  0  0  0
   -0.6540    3.9334    0.0000 H   0  0  0  0  0  0  0  0  0  0  0  0
    0.9227    3.4471    0.0000 H   0  0  0  0  0  0  0  0  0  0  0  0
    1.2899    1.8384    0.0000 H   0  0  0  0  0  0  0  0  0  0  0  0
    1.6280    0.8905    0.0000 H   0  0  0  0  0  0  0  0  0  0  0  0
    1.0683    1.3369    0.0000 H   0  0  0  0  0  0  0  0  0  0  0  0
  1  2  2  0  0  0  0
  2  3  2  0  0  0  0
  2  4  1  0  0  0  0
  2 21  1  0  0  0  0
  5  4  1  0  0  0  0
  4 24  1  0  0  0  0
  4 25  1  0  0  0  0
  5  6  1  1  0  0  0
  5 12  1  0  0  0  0
  5 23  1  0  0  0  0
  6  7  1  0  0  0  0
  6 11  2  0  0  0  0
  7  8  2  0  0  0  0
  7 26  1  0  0  0  0
  8  9  1  0  0  0  0
  8 27  1  0  0  0  0
  9 10  2  0  0  0  0
  9 28  1  0  0  0  0
 10 11  1  0  0  0  0
 10 29  1  0  0  0  0
 11 30  1  0  0  0  0
 12 13  1  0  0  0  0
 12 31  1  0  0  0  0
 12 32  1  0  0  0  0
 14 13  1  0  0  0  0
 13 33  1  0  0  0  0
 13 34  1  0  0  0  0
 14 15  1  1  0  0  0
 14 21  1  0  0  0  0
 14 22  1  0  0  0  0
 15 16  1  0  0  0  0
 15 20  2  0  0  0  0
 16 17  2  0  0  0  0
 16 35  1  0  0  0  0
 17 18  1  0  0  0  0
 17 36  1  0  0  0  0
 18 19  2  0  0  0  0
 18 37  1  0  0  0  0
 19 20  1  0  0  0  0
 19 38  1  0  0  0  0
 20 39  1  0  0  0  0
 21 40  1  0  0  0  0
 21 41  1  0  0  0  0
 22 23  1  0  0  0  0
M  END
