
  Mrv171c004271813302D          

 55 58  0  0  0  0            999 V2000
   -1.1077   -0.8136    0.0000 C   0  0  0  0  0  0  0  0  0  0  0  0
   -0.3637   -0.4571    0.0000 O   0  0  0  0  0  0  0  0  0  0  0  0
   -0.3005    0.3655    0.0000 C   0  0  1  0  0  0  0  0  0  0  0  0
   -1.0271    0.8948    0.0000 O   0  0  0  0  0  0  0  0  0  0  0  0
   -1.1442    1.7859    0.0000 C   0  0  1  0  0  0  0  0  0  0  0  0
   -1.9444    1.9865    0.0000 C   0  0  0  0  0  0  0  0  0  0  0  0
   -0.6233    2.5125    0.0000 C   0  0  0  0  0  0  0  0  0  0  0  0
    0.2604    2.4183    0.0000 C   0  0  0  0  0  0  0  0  0  0  0  0
    0.7512    1.6662    0.0000 C   0  0  1  0  0  0  0  0  0  0  0  0
    1.5348    2.0260    0.0000 C   0  0  0  0  0  0  0  0  0  0  0  0
    2.1079    1.4157    0.0000 C   0  0  0  0  0  0  0  0  0  0  0  0
    1.9470    0.5908    0.0000 C   0  0  0  0  0  0  0  0  0  0  0  0
    1.1816    0.2494    0.0000 C   0  0  1  0  0  0  0  0  0  0  0  0
    1.0769   -0.5689    0.0000 C   0  0  0  0  0  0  0  0  0  0  0  0
    0.3159   -0.8875    0.0000 C   0  0  0  0  0  0  0  0  0  0  0  0
    0.2112   -1.7058    0.0000 O   0  0  0  0  0  0  0  0  0  0  0  0
   -0.5498   -2.0243    0.0000 C   0  0  0  0  0  0  0  0  0  0  0  0
   -1.2549   -1.5958    0.0000 O   0  0  0  0  0  0  0  0  0  0  0  0
   -1.8802   -2.1340    0.0000 C   0  0  0  0  0  0  0  0  0  0  0  0
   -2.6831   -1.9443    0.0000 C   0  0  0  0  0  0  0  0  0  0  0  0
   -1.5617   -2.8950    0.0000 N   0  0  0  0  0  0  0  0  0  0  0  0
   -0.7395   -2.8272    0.0000 C   0  0  0  0  0  0  0  0  0  0  0  0
   -0.2014   -3.4526    0.0000 C   0  0  0  0  0  0  0  0  0  0  0  0
    0.5117    0.7845    0.0000 C   0  0  1  0  0  0  0  0  0  0  0  0
   -0.2195    1.0676    0.0000 O   0  0  0  0  0  0  0  0  0  0  0  0
   -0.3503    1.8343    0.0000 O   0  0  0  0  0  0  0  0  0  0  0  0
    0.3870   -0.0905    0.0000 H   0  0  0  0  0  0  0  0  0  0  0  0
   -0.0637    1.5376    0.0000 H   0  0  0  0  0  0  0  0  0  0  0  0
    1.8437   -0.2428    0.0000 H   0  0  0  0  0  0  0  0  0  0  0  0
   -1.4758   -0.0754    0.0000 H   0  0  0  0  0  0  0  0  0  0  0  0
   -1.9160   -0.6484    0.0000 H   0  0  0  0  0  0  0  0  0  0  0  0
   -0.4534   -1.3161    0.0000 H   0  0  0  0  0  0  0  0  0  0  0  0
   -1.7438    2.7867    0.0000 H   0  0  0  0  0  0  0  0  0  0  0  0
   -2.7447    2.1871    0.0000 H   0  0  0  0  0  0  0  0  0  0  0  0
   -2.1450    1.1863    0.0000 H   0  0  0  0  0  0  0  0  0  0  0  0
   -0.5863    3.3367    0.0000 H   0  0  0  0  0  0  0  0  0  0  0  0
   -1.2632    3.0333    0.0000 H   0  0  0  0  0  0  0  0  0  0  0  0
    0.9532    2.8662    0.0000 H   0  0  0  0  0  0  0  0  0  0  0  0
    0.3442    3.2391    0.0000 H   0  0  0  0  0  0  0  0  0  0  0  0
    2.0541    2.6671    0.0000 H   0  0  0  0  0  0  0  0  0  0  0  0
    1.2953    2.8155    0.0000 H   0  0  0  0  0  0  0  0  0  0  0  0
    2.9205    1.2732    0.0000 H   0  0  0  0  0  0  0  0  0  0  0  0
    2.7199    1.9688    0.0000 H   0  0  0  0  0  0  0  0  0  0  0  0
    2.3009   -0.1544    0.0000 H   0  0  0  0  0  0  0  0  0  0  0  0
    2.7528    0.4137    0.0000 H   0  0  0  0  0  0  0  0  0  0  0  0
    1.1178   -1.3929    0.0000 H   0  0  0  0  0  0  0  0  0  0  0  0
    1.6386   -1.1731    0.0000 H   0  0  0  0  0  0  0  0  0  0  0  0
   -0.0494   -0.1477    0.0000 H   0  0  0  0  0  0  0  0  0  0  0  0
    0.8031   -0.2217    0.0000 H   0  0  0  0  0  0  0  0  0  0  0  0
   -2.4935   -1.1414    0.0000 H   0  0  0  0  0  0  0  0  0  0  0  0
   -3.4860   -1.7547    0.0000 H   0  0  0  0  0  0  0  0  0  0  0  0
   -2.8727   -2.7472    0.0000 H   0  0  0  0  0  0  0  0  0  0  0  0
   -0.8267   -3.9907    0.0000 H   0  0  0  0  0  0  0  0  0  0  0  0
    0.3367   -4.0779    0.0000 H   0  0  0  0  0  0  0  0  0  0  0  0
    0.4240   -2.9145    0.0000 H   0  0  0  0  0  0  0  0  0  0  0  0
  1  2  1  0  0  0  0
  1 30  1  0  0  0  0
  1 31  1  0  0  0  0
  1 32  1  0  0  0  0
  3  2  1  0  0  0  0
  3 27  1  6  0  0  0
  3  4  1  0  0  0  0
 24  3  1  0  0  0  0
  5  4  1  0  0  0  0
  5  6  1  6  0  0  0
  5  7  1  0  0  0  0
  5 26  1  0  0  0  0
  6 33  1  0  0  0  0
  6 34  1  0  0  0  0
  6 35  1  0  0  0  0
  7  8  1  0  0  0  0
  7 36  1  0  0  0  0
  7 37  1  0  0  0  0
  9  8  1  0  0  0  0
  8 38  1  0  0  0  0
  8 39  1  0  0  0  0
  9 28  1  6  0  0  0
  9 10  1  0  0  0  0
 24  9  1  0  0  0  0
 10 11  1  0  0  0  0
 10 40  1  0  0  0  0
 10 41  1  0  0  0  0
 11 12  1  0  0  0  0
 11 42  1  0  0  0  0
 11 43  1  0  0  0  0
 13 12  1  0  0  0  0
 12 44  1  0  0  0  0
 12 45  1  0  0  0  0
 13 29  1  6  0  0  0
 13 14  1  0  0  0  0
 24 13  1  0  0  0  0
 14 15  1  0  0  0  0
 14 46  1  0  0  0  0
 14 47  1  0  0  0  0
 15 16  1  0  0  0  0
 15 48  1  0  0  0  0
 15 49  1  0  0  0  0
 16 17  1  0  0  0  0
 17 18  1  0  0  0  0
 17 22  2  0  0  0  0
 18 19  1  0  0  0  0
 19 20  1  0  0  0  0
 19 21  2  0  0  0  0
 20 50  1  0  0  0  0
 20 51  1  0  0  0  0
 20 52  1  0  0  0  0
 21 22  1  0  0  0  0
 22 23  1  0  0  0  0
 23 53  1  0  0  0  0
 23 54  1  0  0  0  0
 23 55  1  0  0  0  0
 24 25  1  6  0  0  0
 25 26  1  0  0  0  0
M  END
