
  Mrv171c004271813302D          

 46 49  0  0  0  0            999 V2000
    1.1198   -1.6114    0.0000 C   0  0  0  0  0  0  0  0  0  0  0  0
    0.4313   -1.1568    0.0000 C   0  0  1  0  0  0  0  0  0  0  0  0
   -0.2879   -1.5879    0.0000 C   0  0  0  0  0  0  0  0  0  0  0  0
   -0.8514   -0.9684    0.0000 C   0  0  0  0  0  0  0  0  0  0  0  0
   -0.7552   -0.1135    0.0000 C   0  0  1  0  0  0  0  0  0  0  0  0
   -1.5879    0.1191    0.0000 C   0  0  1  0  0  0  0  0  0  0  0  0
   -2.1481   -0.4864    0.0000 C   0  0  0  0  0  0  0  0  0  0  0  0
   -1.8764    0.9093    0.0000 C   0  0  0  0  0  0  0  0  0  0  0  0
   -2.6589    1.1707    0.0000 O   0  0  0  0  0  0  0  0  0  0  0  0
   -1.1713    1.3669    0.0000 N   0  0  0  0  0  0  0  0  0  0  0  0
   -1.2762    2.1852    0.0000 C   0  0  0  0  0  0  0  0  0  0  0  0
   -0.3564    1.0963    0.0000 C   0  0  2  0  0  0  0  0  0  0  0  0
    0.5762    0.8756    0.0000 O   0  0  0  0  0  0  0  0  0  0  0  0
    1.4083    1.0885    0.0000 C   0  0  1  0  0  0  0  0  0  0  0  0
    2.0937    1.5476    0.0000 C   0  0  0  0  0  0  0  0  0  0  0  0
    1.8940    0.3907    0.0000 C   0  0  0  0  0  0  0  0  0  0  0  0
    1.4052   -0.2983    0.0000 C   0  0  0  0  0  0  0  0  0  0  0  0
    0.5478   -0.3095    0.0000 C   0  0  2  0  0  0  0  0  0  0  0  0
   -0.0129    0.3859    0.0000 C   0  0  1  0  0  0  0  0  0  0  0  0
    0.2257    1.3368    0.0000 O   0  0  0  0  0  0  0  0  0  0  0  0
    0.9519    1.7971    0.0000 O   0  0  0  0  0  0  0  0  0  0  0  0
   -1.3632   -0.6747    0.0000 H   0  0  0  0  0  0  0  0  0  0  0  0
   -0.2471   -0.5303    0.0000 H   0  0  0  0  0  0  0  0  0  0  0  0
    0.6651   -2.2998    0.0000 H   0  0  0  0  0  0  0  0  0  0  0  0
    1.8082   -2.0660    0.0000 H   0  0  0  0  0  0  0  0  0  0  0  0
    1.5744   -0.9230    0.0000 H   0  0  0  0  0  0  0  0  0  0  0  0
    1.1829   -0.8164    0.0000 H   0  0  0  0  0  0  0  0  0  0  0  0
   -0.7858   -2.2458    0.0000 H   0  0  0  0  0  0  0  0  0  0  0  0
   -0.0009   -2.3614    0.0000 H   0  0  0  0  0  0  0  0  0  0  0  0
   -1.6694   -0.8611    0.0000 H   0  0  0  0  0  0  0  0  0  0  0  0
   -1.4513   -1.5347    0.0000 H   0  0  0  0  0  0  0  0  0  0  0  0
   -0.8866    0.7010    0.0000 H   0  0  0  0  0  0  0  0  0  0  0  0
   -2.5086    0.2557    0.0000 H   0  0  0  0  0  0  0  0  0  0  0  0
   -2.9705   -0.5524    0.0000 H   0  0  0  0  0  0  0  0  0  0  0  0
   -2.3856   -1.2765    0.0000 H   0  0  0  0  0  0  0  0  0  0  0  0
   -0.4579    2.2901    0.0000 H   0  0  0  0  0  0  0  0  0  0  0  0
   -1.3811    3.0035    0.0000 H   0  0  0  0  0  0  0  0  0  0  0  0
   -2.0945    2.0803    0.0000 H   0  0  0  0  0  0  0  0  0  0  0  0
   -0.3858    1.9207    0.0000 H   0  0  0  0  0  0  0  0  0  0  0  0
    2.5528    0.8622    0.0000 H   0  0  0  0  0  0  0  0  0  0  0  0
    2.7792    2.0067    0.0000 H   0  0  0  0  0  0  0  0  0  0  0  0
    1.6346    2.2331    0.0000 H   0  0  0  0  0  0  0  0  0  0  0  0
    2.1530   -0.3926    0.0000 H   0  0  0  0  0  0  0  0  0  0  0  0
    2.6784    0.1350    0.0000 H   0  0  0  0  0  0  0  0  0  0  0  0
    1.3092    0.5211    0.0000 H   0  0  0  0  0  0  0  0  0  0  0  0
    0.7853    0.2461    0.0000 H   0  0  0  0  0  0  0  0  0  0  0  0
  2  1  1  1  0  0  0
  1 24  1  0  0  0  0
  1 25  1  0  0  0  0
  1 26  1  0  0  0  0
  2  3  1  0  0  0  0
 18  2  1  0  0  0  0
  2 27  1  6  0  0  0
  3  4  1  0  0  0  0
  3 28  1  0  0  0  0
  3 29  1  0  0  0  0
  5  4  1  0  0  0  0
  4 30  1  0  0  0  0
  4 31  1  0  0  0  0
  5  6  1  0  0  0  0
 19  5  1  0  0  0  0
  5 32  1  6  0  0  0
  6 22  1  6  0  0  0
  6  7  1  1  0  0  0
  6  8  1  0  0  0  0
  7 33  1  0  0  0  0
  7 34  1  0  0  0  0
  7 35  1  0  0  0  0
  8  9  2  0  0  0  0
  8 10  1  0  0  0  0
 10 11  1  0  0  0  0
 12 10  1  0  0  0  0
 11 36  1  0  0  0  0
 11 37  1  0  0  0  0
 11 38  1  0  0  0  0
 12 13  1  0  0  0  0
 19 12  1  0  0  0  0
 12 39  1  1  0  0  0
 14 13  1  0  0  0  0
 14 15  1  1  0  0  0
 14 16  1  0  0  0  0
 14 21  1  0  0  0  0
 15 40  1  0  0  0  0
 15 41  1  0  0  0  0
 15 42  1  0  0  0  0
 16 17  1  0  0  0  0
 16 43  1  0  0  0  0
 16 44  1  0  0  0  0
 18 17  1  0  0  0  0
 17 45  1  0  0  0  0
 17 46  1  0  0  0  0
 18 23  1  6  0  0  0
 19 18  1  0  0  0  0
 19 20  1  6  0  0  0
 20 21  1  0  0  0  0
M  END
