
  Mrv171c004271813302D          

 60 62  0  0  0  0            999 V2000
    0.7607   -2.0306    0.0000 C   0  0  0  0  0  0  0  0  0  0  0  0
    0.0729   -1.5749    0.0000 O   0  0  0  0  0  0  0  0  0  0  0  0
    0.1237   -0.7514    0.0000 C   0  0  2  0  0  0  0  0  0  0  0  0
   -0.6585   -0.4159    0.0000 O   0  0  0  0  0  0  0  0  0  0  0  0
   -0.9968    0.3817    0.0000 C   0  0  0  0  0  0  0  0  0  0  0  0
   -1.7301    0.0038    0.0000 C   0  0  0  0  0  0  0  0  0  0  0  0
   -1.7695   -0.8203    0.0000 C   0  0  0  0  0  0  0  0  0  0  0  0
   -2.5029   -1.1982    0.0000 C   0  0  0  0  0  0  0  0  0  0  0  0
   -2.5423   -2.0222    0.0000 C   0  0  0  0  0  0  0  0  0  0  0  0
   -1.4283    1.0848    0.0000 C   0  0  0  0  0  0  0  0  0  0  0  0
   -1.0352    1.8101    0.0000 C   0  0  0  0  0  0  0  0  0  0  0  0
   -1.4667    2.5132    0.0000 C   0  0  0  0  0  0  0  0  0  0  0  0
   -1.0736    3.2385    0.0000 C   0  0  0  0  0  0  0  0  0  0  0  0
   -0.3225    0.8683    0.0000 O   0  0  0  0  0  0  0  0  0  0  0  0
    0.2286    0.2055    0.0000 O   0  0  0  0  0  0  0  0  0  0  0  0
    0.8622   -0.3837    0.0000 C   0  0  1  0  0  0  0  0  0  0  0  0
    0.9129    0.4398    0.0000 C   0  0  0  0  0  0  0  0  0  0  0  0
    1.6514    0.8075    0.0000 C   0  0  1  0  0  0  0  0  0  0  0  0
    1.7022    1.6310    0.0000 C   0  0  0  0  0  0  0  0  0  0  0  0
    2.3392    0.3518    0.0000 C   0  0  0  0  0  0  0  0  0  0  0  0
    2.2884   -0.4716    0.0000 C   0  0  0  0  0  0  0  0  0  0  0  0
    1.5499   -0.8394    0.0000 C   0  0  1  0  0  0  0  0  0  0  0  0
    1.4992   -1.6628    0.0000 C   0  0  1  0  0  0  0  0  0  0  0  0
    2.1869   -2.1185    0.0000 C   0  0  0  0  0  0  0  0  0  0  0  0
    0.3458   -2.7436    0.0000 H   0  0  0  0  0  0  0  0  0  0  0  0
    1.0849   -2.7892    0.0000 H   0  0  0  0  0  0  0  0  0  0  0  0
    1.4484   -2.4862    0.0000 H   0  0  0  0  0  0  0  0  0  0  0  0
    0.8114   -1.2071    0.0000 H   0  0  0  0  0  0  0  0  0  0  0  0
   -2.1500    0.7139    0.0000 H   0  0  0  0  0  0  0  0  0  0  0  0
   -2.5505    0.0911    0.0000 H   0  0  0  0  0  0  0  0  0  0  0  0
   -1.3496   -1.5304    0.0000 H   0  0  0  0  0  0  0  0  0  0  0  0
   -0.9492   -0.9075    0.0000 H   0  0  0  0  0  0  0  0  0  0  0  0
   -2.9228   -0.4880    0.0000 H   0  0  0  0  0  0  0  0  0  0  0  0
   -3.3233   -1.1109    0.0000 H   0  0  0  0  0  0  0  0  0  0  0  0
   -3.3664   -1.9828    0.0000 H   0  0  0  0  0  0  0  0  0  0  0  0
   -2.5817   -2.8463    0.0000 H   0  0  0  0  0  0  0  0  0  0  0  0
   -1.7183   -2.0616    0.0000 H   0  0  0  0  0  0  0  0  0  0  0  0
   -2.0052    1.6746    0.0000 H   0  0  0  0  0  0  0  0  0  0  0  0
   -0.6036    1.1070    0.0000 H   0  0  0  0  0  0  0  0  0  0  0  0
   -0.2269    1.9752    0.0000 H   0  0  0  0  0  0  0  0  0  0  0  0
   -0.5221    2.4561    0.0000 H   0  0  0  0  0  0  0  0  0  0  0  0
   -2.2137    2.8636    0.0000 H   0  0  0  0  0  0  0  0  0  0  0  0
   -2.1938    2.1233    0.0000 H   0  0  0  0  0  0  0  0  0  0  0  0
   -0.2948    3.5108    0.0000 H   0  0  0  0  0  0  0  0  0  0  0  0
   -1.1219    4.0621    0.0000 H   0  0  0  0  0  0  0  0  0  0  0  0
   -1.8789    3.4178    0.0000 H   0  0  0  0  0  0  0  0  0  0  0  0
    0.5948    1.2009    0.0000 H   0  0  0  0  0  0  0  0  0  0  0  0
    1.6007   -0.0159    0.0000 H   0  0  0  0  0  0  0  0  0  0  0  0
    2.3899    1.1753    0.0000 H   0  0  0  0  0  0  0  0  0  0  0  0
    2.3203    2.1773    0.0000 H   0  0  0  0  0  0  0  0  0  0  0  0
    1.3344    2.3695    0.0000 H   0  0  0  0  0  0  0  0  0  0  0  0
    0.8937    1.4669    0.0000 H   0  0  0  0  0  0  0  0  0  0  0  0
    3.0956    0.0225    0.0000 H   0  0  0  0  0  0  0  0  0  0  0  0
    3.1303    0.5858    0.0000 H   0  0  0  0  0  0  0  0  0  0  0  0
    2.4092   -1.2877    0.0000 H   0  0  0  0  0  0  0  0  0  0  0  0
    2.9160   -1.0071    0.0000 H   0  0  0  0  0  0  0  0  0  0  0  0
    1.9557   -1.5577    0.0000 H   0  0  0  0  0  0  0  0  0  0  0  0
    2.0951   -2.9383    0.0000 H   0  0  0  0  0  0  0  0  0  0  0  0
    2.8258   -2.6405    0.0000 H   0  0  0  0  0  0  0  0  0  0  0  0
    2.9720   -1.8651    0.0000 H   0  0  0  0  0  0  0  0  0  0  0  0
  1 25  1  0  0  0  0
  1 26  1  0  0  0  0
  1  2  1  0  0  0  0
 23  1  1  0  0  0  0
  3  2  1  0  0  0  0
  3  4  1  0  0  0  0
 16  3  1  0  0  0  0
  3 28  1  1  0  0  0
  4  5  1  0  0  0  0
  5  6  1  0  0  0  0
  5 10  1  0  0  0  0
  5 14  1  0  0  0  0
  6  7  1  0  0  0  0
  6 29  1  0  0  0  0
  6 30  1  0  0  0  0
  7  8  1  0  0  0  0
  7 31  1  0  0  0  0
  7 32  1  0  0  0  0
  8  9  1  0  0  0  0
  8 33  1  0  0  0  0
  8 34  1  0  0  0  0
  9 35  1  0  0  0  0
  9 36  1  0  0  0  0
  9 37  1  0  0  0  0
 10 11  1  0  0  0  0
 10 38  1  0  0  0  0
 10 39  1  0  0  0  0
 11 12  1  0  0  0  0
 11 40  1  0  0  0  0
 11 41  1  0  0  0  0
 12 13  1  0  0  0  0
 12 42  1  0  0  0  0
 12 43  1  0  0  0  0
 13 44  1  0  0  0  0
 13 45  1  0  0  0  0
 13 46  1  0  0  0  0
 14 15  1  0  0  0  0
 16 15  1  6  0  0  0
 16 17  1  0  0  0  0
 16 22  1  0  0  0  0
 18 17  1  0  0  0  0
 17 47  1  0  0  0  0
 17 48  1  0  0  0  0
 18 19  1  0  0  0  0
 18 20  1  0  0  0  0
 18 49  1  6  0  0  0
 19 50  1  0  0  0  0
 19 51  1  0  0  0  0
 19 52  1  0  0  0  0
 20 21  1  0  0  0  0
 20 53  1  0  0  0  0
 20 54  1  0  0  0  0
 22 21  1  0  0  0  0
 21 55  1  0  0  0  0
 21 56  1  0  0  0  0
 22 23  1  0  0  0  0
 22 57  1  6  0  0  0
 23 27  1  6  0  0  0
 23 24  1  0  0  0  0
 24 58  1  0  0  0  0
 24 59  1  0  0  0  0
 24 60  1  0  0  0  0
M  END
