
  Mrv171c004271813302D          

 49 52  0  0  0  0            999 V2000
   -1.3010    4.5021    0.0000 C   0  0  0  0  0  0  0  0  0  0  0  0
   -0.5127    4.2589    0.0000 O   0  0  0  0  0  0  0  0  0  0  0  0
   -0.3291    3.4546    0.0000 C   0  0  0  0  0  0  0  0  0  0  0  0
    0.4592    3.2114    0.0000 C   0  0  0  0  0  0  0  0  0  0  0  0
    0.6428    2.4071    0.0000 C   0  0  0  0  0  0  0  0  0  0  0  0
    0.0381    1.8460    0.0000 C   0  0  0  0  0  0  0  0  0  0  0  0
    0.2216    1.0417    0.0000 C   0  0  2  0  0  0  0  0  0  0  0  0
    1.0259    0.8581    0.0000 C   0  0  0  0  0  0  0  0  0  0  0  0
    1.3839    0.1148    0.0000 C   0  0  0  0  0  0  0  0  0  0  0  0
    1.0259   -0.6285    0.0000 C   0  0  0  0  0  0  0  0  0  0  0  0
    0.2216   -0.8121    0.0000 C   0  0  2  0  0  0  0  0  0  0  0  0
    0.0381   -1.6164    0.0000 C   0  0  0  0  0  0  0  0  0  0  0  0
    0.6428   -2.1775    0.0000 C   0  0  0  0  0  0  0  0  0  0  0  0
    0.4592   -2.9819    0.0000 C   0  0  0  0  0  0  0  0  0  0  0  0
   -0.3291   -3.2250    0.0000 C   0  0  0  0  0  0  0  0  0  0  0  0
   -0.5127   -4.0294    0.0000 O   0  0  0  0  0  0  0  0  0  0  0  0
    0.0921   -4.5905    0.0000 C   0  0  0  0  0  0  0  0  0  0  0  0
   -0.9339   -2.6639    0.0000 C   0  0  0  0  0  0  0  0  0  0  0  0
   -0.7503   -1.8596    0.0000 C   0  0  0  0  0  0  0  0  0  0  0  0
   -0.4234   -0.2977    0.0000 C   0  0  0  0  0  0  0  0  0  0  0  0
   -0.4234    0.5273    0.0000 C   0  0  0  0  0  0  0  0  0  0  0  0
    0.0672   -0.1942    0.0000 O   0  0  0  0  0  0  0  0  0  0  0  0
    0.0672    0.4237    0.0000 O   0  0  0  0  0  0  0  0  0  0  0  0
   -0.7503    2.0892    0.0000 C   0  0  0  0  0  0  0  0  0  0  0  0
   -0.9339    2.8935    0.0000 C   0  0  0  0  0  0  0  0  0  0  0  0
   -1.0579    5.2904    0.0000 H   0  0  0  0  0  0  0  0  0  0  0  0
   -2.0894    4.7453    0.0000 H   0  0  0  0  0  0  0  0  0  0  0  0
   -1.5442    3.7138    0.0000 H   0  0  0  0  0  0  0  0  0  0  0  0
    1.0640    3.7726    0.0000 H   0  0  0  0  0  0  0  0  0  0  0  0
    1.4312    2.1640    0.0000 H   0  0  0  0  0  0  0  0  0  0  0  0
    1.7692    1.2160    0.0000 H   0  0  0  0  0  0  0  0  0  0  0  0
    1.2095    1.6624    0.0000 H   0  0  0  0  0  0  0  0  0  0  0  0
    2.1272   -0.2432    0.0000 H   0  0  0  0  0  0  0  0  0  0  0  0
    2.1272    0.4727    0.0000 H   0  0  0  0  0  0  0  0  0  0  0  0
    1.2095   -1.4328    0.0000 H   0  0  0  0  0  0  0  0  0  0  0  0
    1.7692   -0.9865    0.0000 H   0  0  0  0  0  0  0  0  0  0  0  0
    1.3901   -2.5270    0.0000 H   0  0  0  0  0  0  0  0  0  0  0  0
    1.0640   -3.5430    0.0000 H   0  0  0  0  0  0  0  0  0  0  0  0
   -0.4691   -5.1953    0.0000 H   0  0  0  0  0  0  0  0  0  0  0  0
    0.6968   -5.1516    0.0000 H   0  0  0  0  0  0  0  0  0  0  0  0
    0.6532   -3.9857    0.0000 H   0  0  0  0  0  0  0  0  0  0  0  0
   -1.7222   -2.9071    0.0000 H   0  0  0  0  0  0  0  0  0  0  0  0
   -1.3551   -1.2984    0.0000 H   0  0  0  0  0  0  0  0  0  0  0  0
   -1.2484   -0.2977    0.0000 H   0  0  0  0  0  0  0  0  0  0  0  0
   -0.9378   -0.9427    0.0000 H   0  0  0  0  0  0  0  0  0  0  0  0
   -0.9378    1.1723    0.0000 H   0  0  0  0  0  0  0  0  0  0  0  0
   -1.2484    0.5273    0.0000 H   0  0  0  0  0  0  0  0  0  0  0  0
   -1.5752    2.0798    0.0000 H   0  0  0  0  0  0  0  0  0  0  0  0
   -1.7222    3.1366    0.0000 H   0  0  0  0  0  0  0  0  0  0  0  0
  1  2  1  0  0  0  0
  1 26  1  0  0  0  0
  1 27  1  0  0  0  0
  1 28  1  0  0  0  0
  2  3  1  0  0  0  0
  3  4  1  0  0  0  0
  3 25  2  0  0  0  0
  4  5  2  0  0  0  0
  4 29  1  0  0  0  0
  5  6  1  0  0  0  0
  5 30  1  0  0  0  0
  7  6  1  1  0  0  0
  6 24  2  0  0  0  0
  7  8  1  0  0  0  0
  7 21  1  0  0  0  0
  7 23  1  0  0  0  0
  8  9  1  0  0  0  0
  8 31  1  0  0  0  0
  8 32  1  0  0  0  0
  9 10  1  0  0  0  0
  9 33  1  0  0  0  0
  9 34  1  0  0  0  0
 11 10  1  0  0  0  0
 10 35  1  0  0  0  0
 10 36  1  0  0  0  0
 11 12  1  1  0  0  0
 11 20  1  0  0  0  0
 11 22  1  0  0  0  0
 12 13  1  0  0  0  0
 12 19  2  0  0  0  0
 13 14  2  0  0  0  0
 13 37  1  0  0  0  0
 14 15  1  0  0  0  0
 14 38  1  0  0  0  0
 15 16  1  0  0  0  0
 15 18  2  0  0  0  0
 16 17  1  0  0  0  0
 17 39  1  0  0  0  0
 17 40  1  0  0  0  0
 17 41  1  0  0  0  0
 18 19  1  0  0  0  0
 18 42  1  0  0  0  0
 19 43  1  0  0  0  0
 20 21  1  0  0  0  0
 20 44  1  0  0  0  0
 20 45  1  0  0  0  0
 21 46  1  0  0  0  0
 21 47  1  0  0  0  0
 22 23  1  0  0  0  0
 24 25  1  0  0  0  0
 24 48  1  0  0  0  0
 25 49  1  0  0  0  0
M  END
