
  Mrv171c004271813302D          

 53 56  0  0  0  0            999 V2000
   -1.0593   -0.8578    0.0000 C   0  0  0  0  0  0  0  0  0  0  0  0
   -0.3153   -0.5013    0.0000 O   0  0  0  0  0  0  0  0  0  0  0  0
   -0.2521    0.3213    0.0000 C   0  0  1  0  0  0  0  0  0  0  0  0
   -0.9787    0.8506    0.0000 O   0  0  0  0  0  0  0  0  0  0  0  0
   -1.0958    1.7417    0.0000 C   0  0  1  0  0  0  0  0  0  0  0  0
   -1.8960    1.9423    0.0000 C   0  0  0  0  0  0  0  0  0  0  0  0
   -0.5749    2.4683    0.0000 C   0  0  0  0  0  0  0  0  0  0  0  0
    0.3088    2.3742    0.0000 C   0  0  0  0  0  0  0  0  0  0  0  0
    0.7996    1.6220    0.0000 C   0  0  1  0  0  0  0  0  0  0  0  0
    1.5832    1.9818    0.0000 C   0  0  0  0  0  0  0  0  0  0  0  0
    2.1563    1.3715    0.0000 C   0  0  0  0  0  0  0  0  0  0  0  0
    1.9954    0.5466    0.0000 C   0  0  0  0  0  0  0  0  0  0  0  0
    1.2300    0.2052    0.0000 C   0  0  1  0  0  0  0  0  0  0  0  0
    1.1253   -0.6131    0.0000 C   0  0  0  0  0  0  0  0  0  0  0  0
    0.3643   -0.9317    0.0000 C   0  0  0  0  0  0  0  0  0  0  0  0
    0.2596   -1.7500    0.0000 O   0  0  0  0  0  0  0  0  0  0  0  0
   -0.5014   -2.0685    0.0000 C   0  0  0  0  0  0  0  0  0  0  0  0
   -0.6061   -2.8868    0.0000 C   0  0  0  0  0  0  0  0  0  0  0  0
   -1.3671   -3.2054    0.0000 C   0  0  0  0  0  0  0  0  0  0  0  0
   -2.0235   -2.7055    0.0000 C   0  0  0  0  0  0  0  0  0  0  0  0
   -1.9188   -1.8872    0.0000 C   0  0  0  0  0  0  0  0  0  0  0  0
   -1.1578   -1.5687    0.0000 C   0  0  0  0  0  0  0  0  0  0  0  0
    0.5601    0.7403    0.0000 C   0  0  1  0  0  0  0  0  0  0  0  0
   -0.1711    1.0234    0.0000 O   0  0  0  0  0  0  0  0  0  0  0  0
   -0.3019    1.7901    0.0000 O   0  0  0  0  0  0  0  0  0  0  0  0
    0.4354   -0.1347    0.0000 H   0  0  0  0  0  0  0  0  0  0  0  0
   -0.0153    1.4934    0.0000 H   0  0  0  0  0  0  0  0  0  0  0  0
    1.8921   -0.2870    0.0000 H   0  0  0  0  0  0  0  0  0  0  0  0
   -0.9835   -0.0363    0.0000 H   0  0  0  0  0  0  0  0  0  0  0  0
   -1.7255   -0.3713    0.0000 H   0  0  0  0  0  0  0  0  0  0  0  0
   -1.8188   -1.1800    0.0000 H   0  0  0  0  0  0  0  0  0  0  0  0
   -1.6954    2.7426    0.0000 H   0  0  0  0  0  0  0  0  0  0  0  0
   -2.6963    2.1429    0.0000 H   0  0  0  0  0  0  0  0  0  0  0  0
   -2.0966    1.1421    0.0000 H   0  0  0  0  0  0  0  0  0  0  0  0
   -0.5379    3.2925    0.0000 H   0  0  0  0  0  0  0  0  0  0  0  0
   -1.2148    2.9891    0.0000 H   0  0  0  0  0  0  0  0  0  0  0  0
    1.0016    2.8220    0.0000 H   0  0  0  0  0  0  0  0  0  0  0  0
    0.3926    3.1949    0.0000 H   0  0  0  0  0  0  0  0  0  0  0  0
    2.1025    2.6229    0.0000 H   0  0  0  0  0  0  0  0  0  0  0  0
    1.3437    2.7713    0.0000 H   0  0  0  0  0  0  0  0  0  0  0  0
    2.9689    1.2290    0.0000 H   0  0  0  0  0  0  0  0  0  0  0  0
    2.7683    1.9247    0.0000 H   0  0  0  0  0  0  0  0  0  0  0  0
    2.3493   -0.1986    0.0000 H   0  0  0  0  0  0  0  0  0  0  0  0
    2.8012    0.3695    0.0000 H   0  0  0  0  0  0  0  0  0  0  0  0
    1.1662   -1.4371    0.0000 H   0  0  0  0  0  0  0  0  0  0  0  0
    1.6870   -1.2173    0.0000 H   0  0  0  0  0  0  0  0  0  0  0  0
   -0.4562   -1.0180    0.0000 H   0  0  0  0  0  0  0  0  0  0  0  0
   -0.2256   -1.5084    0.0000 H   0  0  0  0  0  0  0  0  0  0  0  0
    0.0503   -3.3867    0.0000 H   0  0  0  0  0  0  0  0  0  0  0  0
   -1.4718   -4.0237    0.0000 H   0  0  0  0  0  0  0  0  0  0  0  0
   -2.7845   -3.0241    0.0000 H   0  0  0  0  0  0  0  0  0  0  0  0
   -2.7364   -1.7771    0.0000 H   0  0  0  0  0  0  0  0  0  0  0  0
   -1.2625   -2.3870    0.0000 H   0  0  0  0  0  0  0  0  0  0  0  0
  1  2  1  0  0  0  0
  1 29  1  0  0  0  0
  1 30  1  0  0  0  0
  1 31  1  0  0  0  0
  3  2  1  0  0  0  0
  3 26  1  6  0  0  0
  3  4  1  0  0  0  0
 23  3  1  0  0  0  0
  5  4  1  0  0  0  0
  5  6  1  6  0  0  0
  5  7  1  0  0  0  0
  5 25  1  0  0  0  0
  6 32  1  0  0  0  0
  6 33  1  0  0  0  0
  6 34  1  0  0  0  0
  7  8  1  0  0  0  0
  7 35  1  0  0  0  0
  7 36  1  0  0  0  0
  9  8  1  0  0  0  0
  8 37  1  0  0  0  0
  8 38  1  0  0  0  0
  9 27  1  6  0  0  0
  9 10  1  0  0  0  0
 23  9  1  0  0  0  0
 10 11  1  0  0  0  0
 10 39  1  0  0  0  0
 10 40  1  0  0  0  0
 11 12  1  0  0  0  0
 11 41  1  0  0  0  0
 11 42  1  0  0  0  0
 13 12  1  0  0  0  0
 12 43  1  0  0  0  0
 12 44  1  0  0  0  0
 13 28  1  6  0  0  0
 13 14  1  0  0  0  0
 23 13  1  0  0  0  0
 14 15  1  0  0  0  0
 14 45  1  0  0  0  0
 14 46  1  0  0  0  0
 15 16  1  0  0  0  0
 15 47  1  0  0  0  0
 15 48  1  0  0  0  0
 16 17  1  0  0  0  0
 17 18  1  0  0  0  0
 17 22  2  0  0  0  0
 18 19  2  0  0  0  0
 18 49  1  0  0  0  0
 19 20  1  0  0  0  0
 19 50  1  0  0  0  0
 20 21  2  0  0  0  0
 20 51  1  0  0  0  0
 21 22  1  0  0  0  0
 21 52  1  0  0  0  0
 22 53  1  0  0  0  0
 23 24  1  6  0  0  0
 24 25  1  0  0  0  0
M  END
