
  Mrv171c004271813302D          

 43 46  0  0  0  0            999 V2000
    1.0190   -1.3987    0.0000 C   0  0  0  0  0  0  0  0  0  0  0  0
    0.3306   -0.9441    0.0000 C   0  0  1  0  0  0  0  0  0  0  0  0
   -0.3886   -1.3752    0.0000 C   0  0  0  0  0  0  0  0  0  0  0  0
   -0.9521   -0.7557    0.0000 C   0  0  0  0  0  0  0  0  0  0  0  0
   -0.8560    0.0992    0.0000 C   0  0  1  0  0  0  0  0  0  0  0  0
   -1.6886    0.3319    0.0000 C   0  0  1  0  0  0  0  0  0  0  0  0
   -2.2489   -0.2737    0.0000 C   0  0  0  0  0  0  0  0  0  0  0  0
   -1.9772    1.1220    0.0000 C   0  0  0  0  0  0  0  0  0  0  0  0
   -2.7596    1.3834    0.0000 O   0  0  0  0  0  0  0  0  0  0  0  0
   -1.2720    1.5796    0.0000 N   0  0  0  0  0  0  0  0  0  0  0  0
   -0.4572    1.3090    0.0000 C   0  0  2  0  0  0  0  0  0  0  0  0
    0.4755    1.0883    0.0000 O   0  0  0  0  0  0  0  0  0  0  0  0
    1.3075    1.3012    0.0000 C   0  0  1  0  0  0  0  0  0  0  0  0
    1.9930    1.7603    0.0000 C   0  0  0  0  0  0  0  0  0  0  0  0
    1.7933    0.6034    0.0000 C   0  0  0  0  0  0  0  0  0  0  0  0
    1.3045   -0.0856    0.0000 C   0  0  0  0  0  0  0  0  0  0  0  0
    0.4470   -0.0968    0.0000 C   0  0  2  0  0  0  0  0  0  0  0  0
   -0.1136    0.5986    0.0000 C   0  0  1  0  0  0  0  0  0  0  0  0
    0.1249    1.5495    0.0000 O   0  0  0  0  0  0  0  0  0  0  0  0
    0.8511    2.0098    0.0000 O   0  0  0  0  0  0  0  0  0  0  0  0
   -1.4639   -0.4620    0.0000 H   0  0  0  0  0  0  0  0  0  0  0  0
   -0.3479   -0.3176    0.0000 H   0  0  0  0  0  0  0  0  0  0  0  0
    0.5644   -2.0871    0.0000 H   0  0  0  0  0  0  0  0  0  0  0  0
    1.7075   -1.8533    0.0000 H   0  0  0  0  0  0  0  0  0  0  0  0
    1.4737   -0.7103    0.0000 H   0  0  0  0  0  0  0  0  0  0  0  0
    1.0821   -0.6037    0.0000 H   0  0  0  0  0  0  0  0  0  0  0  0
   -0.8865   -2.0331    0.0000 H   0  0  0  0  0  0  0  0  0  0  0  0
   -0.1016   -2.1487    0.0000 H   0  0  0  0  0  0  0  0  0  0  0  0
   -1.7701   -0.6484    0.0000 H   0  0  0  0  0  0  0  0  0  0  0  0
   -1.5521   -1.3220    0.0000 H   0  0  0  0  0  0  0  0  0  0  0  0
   -0.9873    0.9137    0.0000 H   0  0  0  0  0  0  0  0  0  0  0  0
   -2.6093    0.4684    0.0000 H   0  0  0  0  0  0  0  0  0  0  0  0
   -3.0713   -0.3397    0.0000 H   0  0  0  0  0  0  0  0  0  0  0  0
   -2.4864   -1.0638    0.0000 H   0  0  0  0  0  0  0  0  0  0  0  0
   -1.3769    2.3979    0.0000 H   0  0  0  0  0  0  0  0  0  0  0  0
   -0.4865    2.1334    0.0000 H   0  0  0  0  0  0  0  0  0  0  0  0
    2.4521    1.0749    0.0000 H   0  0  0  0  0  0  0  0  0  0  0  0
    2.6784    2.2194    0.0000 H   0  0  0  0  0  0  0  0  0  0  0  0
    1.5338    2.4458    0.0000 H   0  0  0  0  0  0  0  0  0  0  0  0
    2.0522   -0.1799    0.0000 H   0  0  0  0  0  0  0  0  0  0  0  0
    2.5776    0.3477    0.0000 H   0  0  0  0  0  0  0  0  0  0  0  0
    1.2085    0.7338    0.0000 H   0  0  0  0  0  0  0  0  0  0  0  0
    0.6845    0.4588    0.0000 H   0  0  0  0  0  0  0  0  0  0  0  0
  2  1  1  1  0  0  0
  1 23  1  0  0  0  0
  1 24  1  0  0  0  0
  1 25  1  0  0  0  0
  2  3  1  0  0  0  0
 17  2  1  0  0  0  0
  2 26  1  6  0  0  0
  3  4  1  0  0  0  0
  3 27  1  0  0  0  0
  3 28  1  0  0  0  0
  5  4  1  0  0  0  0
  4 29  1  0  0  0  0
  4 30  1  0  0  0  0
  5  6  1  0  0  0  0
 18  5  1  0  0  0  0
  5 31  1  6  0  0  0
  6 21  1  6  0  0  0
  6  7  1  1  0  0  0
  6  8  1  0  0  0  0
  7 32  1  0  0  0  0
  7 33  1  0  0  0  0
  7 34  1  0  0  0  0
  8  9  2  0  0  0  0
  8 10  1  0  0  0  0
 11 10  1  0  0  0  0
 10 35  1  0  0  0  0
 11 12  1  0  0  0  0
 18 11  1  0  0  0  0
 11 36  1  1  0  0  0
 13 12  1  0  0  0  0
 13 14  1  1  0  0  0
 13 15  1  0  0  0  0
 13 20  1  0  0  0  0
 14 37  1  0  0  0  0
 14 38  1  0  0  0  0
 14 39  1  0  0  0  0
 15 16  1  0  0  0  0
 15 40  1  0  0  0  0
 15 41  1  0  0  0  0
 17 16  1  0  0  0  0
 16 42  1  0  0  0  0
 16 43  1  0  0  0  0
 17 22  1  6  0  0  0
 18 17  1  0  0  0  0
 18 19  1  6  0  0  0
 19 20  1  0  0  0  0
M  END
