
  Mrv171c004271813302D          

 43 46  0  0  0  0            999 V2000
    1.1618   -1.4605    0.0000 C   0  0  0  0  0  0  0  0  0  0  0  0
    0.4734   -1.0059    0.0000 C   0  0  1  0  0  0  0  0  0  0  0  0
   -0.2458   -1.4370    0.0000 C   0  0  0  0  0  0  0  0  0  0  0  0
   -0.8094   -0.8175    0.0000 C   0  0  0  0  0  0  0  0  0  0  0  0
   -0.7132    0.0374    0.0000 C   0  0  1  0  0  0  0  0  0  0  0  0
   -1.5459    0.2701    0.0000 C   0  0  1  0  0  0  0  0  0  0  0  0
   -2.1061   -0.3355    0.0000 C   0  0  0  0  0  0  0  0  0  0  0  0
   -1.8344    1.0602    0.0000 C   0  0  0  0  0  0  0  0  0  0  0  0
   -1.1293    1.5178    0.0000 O   0  0  0  0  0  0  0  0  0  0  0  0
   -0.3144    1.2472    0.0000 C   0  0  2  0  0  0  0  0  0  0  0  0
    0.6182    1.0265    0.0000 O   0  0  0  0  0  0  0  0  0  0  0  0
    1.4503    1.2394    0.0000 C   0  0  1  0  0  0  0  0  0  0  0  0
    2.1357    1.6985    0.0000 C   0  0  0  0  0  0  0  0  0  0  0  0
    1.9360    0.5417    0.0000 C   0  0  0  0  0  0  0  0  0  0  0  0
    1.4472   -0.1474    0.0000 C   0  0  0  0  0  0  0  0  0  0  0  0
    0.5898   -0.1586    0.0000 C   0  0  2  0  0  0  0  0  0  0  0  0
    0.0291    0.5369    0.0000 C   0  0  1  0  0  0  0  0  0  0  0  0
    0.2677    1.4877    0.0000 O   0  0  0  0  0  0  0  0  0  0  0  0
    0.9939    1.9480    0.0000 O   0  0  0  0  0  0  0  0  0  0  0  0
   -0.8446    0.8519    0.0000 H   0  0  0  0  0  0  0  0  0  0  0  0
    0.7072   -2.1489    0.0000 H   0  0  0  0  0  0  0  0  0  0  0  0
    1.8502   -1.9151    0.0000 H   0  0  0  0  0  0  0  0  0  0  0  0
    1.6164   -0.7721    0.0000 H   0  0  0  0  0  0  0  0  0  0  0  0
    1.2249   -0.6655    0.0000 H   0  0  0  0  0  0  0  0  0  0  0  0
   -0.7437   -2.0948    0.0000 H   0  0  0  0  0  0  0  0  0  0  0  0
    0.0411   -2.2105    0.0000 H   0  0  0  0  0  0  0  0  0  0  0  0
   -1.6274   -0.7102    0.0000 H   0  0  0  0  0  0  0  0  0  0  0  0
   -1.4093   -1.3838    0.0000 H   0  0  0  0  0  0  0  0  0  0  0  0
   -1.3211   -0.5237    0.0000 H   0  0  0  0  0  0  0  0  0  0  0  0
   -2.4666    0.4066    0.0000 H   0  0  0  0  0  0  0  0  0  0  0  0
   -2.9285   -0.4015    0.0000 H   0  0  0  0  0  0  0  0  0  0  0  0
   -2.3436   -1.1256    0.0000 H   0  0  0  0  0  0  0  0  0  0  0  0
   -2.0897    1.8447    0.0000 H   0  0  0  0  0  0  0  0  0  0  0  0
   -2.5553    1.4613    0.0000 H   0  0  0  0  0  0  0  0  0  0  0  0
   -0.3438    2.0717    0.0000 H   0  0  0  0  0  0  0  0  0  0  0  0
    2.5948    1.0131    0.0000 H   0  0  0  0  0  0  0  0  0  0  0  0
    2.8212    2.1576    0.0000 H   0  0  0  0  0  0  0  0  0  0  0  0
    1.6766    2.3840    0.0000 H   0  0  0  0  0  0  0  0  0  0  0  0
    2.1950   -0.2416    0.0000 H   0  0  0  0  0  0  0  0  0  0  0  0
    2.7204    0.2859    0.0000 H   0  0  0  0  0  0  0  0  0  0  0  0
    1.3513    0.6720    0.0000 H   0  0  0  0  0  0  0  0  0  0  0  0
    0.8273    0.3970    0.0000 H   0  0  0  0  0  0  0  0  0  0  0  0
   -0.2051   -0.3794    0.0000 H   0  0  0  0  0  0  0  0  0  0  0  0
  2  1  1  1  0  0  0
  1 21  1  0  0  0  0
  1 22  1  0  0  0  0
  1 23  1  0  0  0  0
  2  3  1  0  0  0  0
 16  2  1  0  0  0  0
  2 24  1  6  0  0  0
  3  4  1  0  0  0  0
  3 25  1  0  0  0  0
  3 26  1  0  0  0  0
  5  4  1  0  0  0  0
  4 27  1  0  0  0  0
  4 28  1  0  0  0  0
  5 20  1  6  0  0  0
  5  6  1  0  0  0  0
 17  5  1  0  0  0  0
  6  7  1  1  0  0  0
  6  8  1  0  0  0  0
  6 29  1  6  0  0  0
  7 30  1  0  0  0  0
  7 31  1  0  0  0  0
  7 32  1  0  0  0  0
  8  9  1  0  0  0  0
  8 33  1  0  0  0  0
  8 34  1  0  0  0  0
 10  9  1  0  0  0  0
 10 11  1  0  0  0  0
 17 10  1  0  0  0  0
 10 35  1  1  0  0  0
 12 11  1  0  0  0  0
 12 13  1  1  0  0  0
 12 14  1  0  0  0  0
 12 19  1  0  0  0  0
 13 36  1  0  0  0  0
 13 37  1  0  0  0  0
 13 38  1  0  0  0  0
 14 15  1  0  0  0  0
 14 39  1  0  0  0  0
 14 40  1  0  0  0  0
 16 15  1  0  0  0  0
 15 41  1  0  0  0  0
 15 42  1  0  0  0  0
 17 16  1  0  0  0  0
 16 43  1  6  0  0  0
 17 18  1  6  0  0  0
 18 19  1  0  0  0  0
M  END
