
  Mrv171c004271813302D          

 59 62  0  0  0  0            999 V2000
   -0.8504   -0.3847    0.0000 C   0  0  0  0  0  0  0  0  0  0  0  0
   -0.1064   -0.0281    0.0000 O   0  0  0  0  0  0  0  0  0  0  0  0
   -0.0432    0.7944    0.0000 C   0  0  1  0  0  0  0  0  0  0  0  0
   -0.7698    1.3237    0.0000 O   0  0  0  0  0  0  0  0  0  0  0  0
   -0.8869    2.2148    0.0000 C   0  0  1  0  0  0  0  0  0  0  0  0
   -1.6871    2.4155    0.0000 C   0  0  0  0  0  0  0  0  0  0  0  0
   -0.3660    2.9415    0.0000 C   0  0  0  0  0  0  0  0  0  0  0  0
    0.5177    2.8473    0.0000 C   0  0  0  0  0  0  0  0  0  0  0  0
    1.0085    2.0951    0.0000 C   0  0  1  0  0  0  0  0  0  0  0  0
    1.7921    2.4550    0.0000 C   0  0  0  0  0  0  0  0  0  0  0  0
    2.3652    1.8446    0.0000 C   0  0  0  0  0  0  0  0  0  0  0  0
    2.2043    1.0198    0.0000 C   0  0  0  0  0  0  0  0  0  0  0  0
    1.4389    0.6783    0.0000 C   0  0  1  0  0  0  0  0  0  0  0  0
    1.3342   -0.1400    0.0000 C   0  0  0  0  0  0  0  0  0  0  0  0
    0.5732   -0.4585    0.0000 C   0  0  0  0  0  0  0  0  0  0  0  0
    0.4685   -1.2768    0.0000 O   0  0  0  0  0  0  0  0  0  0  0  0
   -0.2925   -1.5954    0.0000 S   0  0  0  0  0  0  0  0  0  0  0  0
   -0.6111   -0.8343    0.0000 O   0  0  0  0  0  0  0  0  0  0  0  0
    0.0260   -2.3564    0.0000 O   0  0  0  0  0  0  0  0  0  0  0  0
   -1.0536   -1.9139    0.0000 C   0  0  0  0  0  0  0  0  0  0  0  0
   -1.1582   -2.7322    0.0000 C   0  0  0  0  0  0  0  0  0  0  0  0
   -1.9193   -3.0507    0.0000 C   0  0  0  0  0  0  0  0  0  0  0  0
   -2.5756   -2.5509    0.0000 C   0  0  0  0  0  0  0  0  0  0  0  0
   -3.3367   -2.8695    0.0000 C   0  0  0  0  0  0  0  0  0  0  0  0
   -2.4710   -1.7326    0.0000 C   0  0  0  0  0  0  0  0  0  0  0  0
   -1.7099   -1.4141    0.0000 C   0  0  0  0  0  0  0  0  0  0  0  0
    0.7690    1.2134    0.0000 C   0  0  1  0  0  0  0  0  0  0  0  0
    0.0378    1.4965    0.0000 O   0  0  0  0  0  0  0  0  0  0  0  0
   -0.0930    2.2633    0.0000 O   0  0  0  0  0  0  0  0  0  0  0  0
    0.6443    0.3385    0.0000 H   0  0  0  0  0  0  0  0  0  0  0  0
    0.1936    1.9666    0.0000 H   0  0  0  0  0  0  0  0  0  0  0  0
    2.1010    0.1862    0.0000 H   0  0  0  0  0  0  0  0  0  0  0  0
   -0.9038    0.4386    0.0000 H   0  0  0  0  0  0  0  0  0  0  0  0
   -1.6342   -0.1272    0.0000 H   0  0  0  0  0  0  0  0  0  0  0  0
   -1.3816   -1.0159    0.0000 H   0  0  0  0  0  0  0  0  0  0  0  0
   -1.4865    3.2157    0.0000 H   0  0  0  0  0  0  0  0  0  0  0  0
   -2.4874    2.6161    0.0000 H   0  0  0  0  0  0  0  0  0  0  0  0
   -1.8877    1.6152    0.0000 H   0  0  0  0  0  0  0  0  0  0  0  0
   -0.3290    3.7657    0.0000 H   0  0  0  0  0  0  0  0  0  0  0  0
   -1.0059    3.4623    0.0000 H   0  0  0  0  0  0  0  0  0  0  0  0
    1.2105    3.2952    0.0000 H   0  0  0  0  0  0  0  0  0  0  0  0
    0.6015    3.6680    0.0000 H   0  0  0  0  0  0  0  0  0  0  0  0
    2.3114    3.0960    0.0000 H   0  0  0  0  0  0  0  0  0  0  0  0
    1.5526    3.2444    0.0000 H   0  0  0  0  0  0  0  0  0  0  0  0
    3.1778    1.7021    0.0000 H   0  0  0  0  0  0  0  0  0  0  0  0
    2.9772    2.3978    0.0000 H   0  0  0  0  0  0  0  0  0  0  0  0
    2.5582    0.2745    0.0000 H   0  0  0  0  0  0  0  0  0  0  0  0
    3.0101    0.8427    0.0000 H   0  0  0  0  0  0  0  0  0  0  0  0
    1.3751   -0.9640    0.0000 H   0  0  0  0  0  0  0  0  0  0  0  0
    1.8959   -0.7442    0.0000 H   0  0  0  0  0  0  0  0  0  0  0  0
   -0.2473   -0.5448    0.0000 H   0  0  0  0  0  0  0  0  0  0  0  0
   -0.0167   -1.0353    0.0000 H   0  0  0  0  0  0  0  0  0  0  0  0
   -0.5019   -3.2320    0.0000 H   0  0  0  0  0  0  0  0  0  0  0  0
   -2.0239   -3.8691    0.0000 H   0  0  0  0  0  0  0  0  0  0  0  0
   -3.6552   -2.1084    0.0000 H   0  0  0  0  0  0  0  0  0  0  0  0
   -4.0977   -3.1880    0.0000 H   0  0  0  0  0  0  0  0  0  0  0  0
   -3.0181   -3.6305    0.0000 H   0  0  0  0  0  0  0  0  0  0  0  0
   -3.1273   -1.2328    0.0000 H   0  0  0  0  0  0  0  0  0  0  0  0
   -2.2018   -0.7517    0.0000 H   0  0  0  0  0  0  0  0  0  0  0  0
  1  2  1  0  0  0  0
  1 33  1  0  0  0  0
  1 34  1  0  0  0  0
  1 35  1  0  0  0  0
  3  2  1  0  0  0  0
  3 30  1  6  0  0  0
  3  4  1  0  0  0  0
 27  3  1  0  0  0  0
  5  4  1  0  0  0  0
  5  6  1  6  0  0  0
  5  7  1  0  0  0  0
  5 29  1  0  0  0  0
  6 36  1  0  0  0  0
  6 37  1  0  0  0  0
  6 38  1  0  0  0  0
  7  8  1  0  0  0  0
  7 39  1  0  0  0  0
  7 40  1  0  0  0  0
  9  8  1  0  0  0  0
  8 41  1  0  0  0  0
  8 42  1  0  0  0  0
  9 31  1  6  0  0  0
  9 10  1  0  0  0  0
 27  9  1  0  0  0  0
 10 11  1  0  0  0  0
 10 43  1  0  0  0  0
 10 44  1  0  0  0  0
 11 12  1  0  0  0  0
 11 45  1  0  0  0  0
 11 46  1  0  0  0  0
 13 12  1  0  0  0  0
 12 47  1  0  0  0  0
 12 48  1  0  0  0  0
 13 32  1  6  0  0  0
 13 14  1  0  0  0  0
 27 13  1  0  0  0  0
 14 15  1  0  0  0  0
 14 49  1  0  0  0  0
 14 50  1  0  0  0  0
 15 16  1  0  0  0  0
 15 51  1  0  0  0  0
 15 52  1  0  0  0  0
 16 17  1  0  0  0  0
 17 18  2  0  0  0  0
 17 19  2  0  0  0  0
 17 20  1  0  0  0  0
 20 21  1  0  0  0  0
 20 26  2  0  0  0  0
 21 22  2  0  0  0  0
 21 53  1  0  0  0  0
 22 23  1  0  0  0  0
 22 54  1  0  0  0  0
 23 24  1  0  0  0  0
 23 25  2  0  0  0  0
 24 55  1  0  0  0  0
 24 56  1  0  0  0  0
 24 57  1  0  0  0  0
 25 26  1  0  0  0  0
 25 58  1  0  0  0  0
 26 59  1  0  0  0  0
 27 28  1  6  0  0  0
 28 29  1  0  0  0  0
M  END
