
  Mrv171c004271813302D          

 41 44  0  0  0  0            999 V2000
   -2.2321   -0.5591    0.0000 C   0  0  0  0  0  0  0  0  0  0  0  0
   -1.6718    0.0464    0.0000 C   0  0  0  0  0  0  0  0  0  0  0  0
   -1.9603    0.8365    0.0000 C   0  0  0  0  0  0  0  0  0  0  0  0
   -1.2552    1.2942    0.0000 O   0  0  0  0  0  0  0  0  0  0  0  0
   -0.4404    1.0235    0.0000 C   0  0  2  0  0  0  0  0  0  0  0  0
    0.4923    0.8028    0.0000 O   0  0  0  0  0  0  0  0  0  0  0  0
    1.3244    1.0158    0.0000 C   0  0  1  0  0  0  0  0  0  0  0  0
    2.0098    1.4749    0.0000 C   0  0  0  0  0  0  0  0  0  0  0  0
    1.8101    0.3180    0.0000 C   0  0  0  0  0  0  0  0  0  0  0  0
    1.3213   -0.3710    0.0000 C   0  0  0  0  0  0  0  0  0  0  0  0
    0.4639   -0.3822    0.0000 C   0  0  1  0  0  0  0  0  0  0  0  0
    0.3474   -1.2295    0.0000 C   0  0  1  0  0  0  0  0  0  0  0  0
    1.0359   -1.6841    0.0000 C   0  0  0  0  0  0  0  0  0  0  0  0
   -0.3718   -1.6607    0.0000 C   0  0  0  0  0  0  0  0  0  0  0  0
   -0.9353   -1.0412    0.0000 C   0  0  0  0  0  0  0  0  0  0  0  0
   -0.8391   -0.1862    0.0000 C   0  0  2  0  0  0  0  0  0  0  0  0
   -0.0968    0.3132    0.0000 C   0  0  1  0  0  0  0  0  0  0  0  0
    0.1418    1.2640    0.0000 O   0  0  0  0  0  0  0  0  0  0  0  0
    0.8680    1.7244    0.0000 O   0  0  0  0  0  0  0  0  0  0  0  0
    0.8150    0.3644    0.0000 H   0  0  0  0  0  0  0  0  0  0  0  0
   -0.9705    0.6282    0.0000 H   0  0  0  0  0  0  0  0  0  0  0  0
   -2.8376    0.0011    0.0000 H   0  0  0  0  0  0  0  0  0  0  0  0
   -2.7923   -1.1647    0.0000 H   0  0  0  0  0  0  0  0  0  0  0  0
   -1.6265   -1.1194    0.0000 H   0  0  0  0  0  0  0  0  0  0  0  0
   -2.7428    1.0980    0.0000 H   0  0  0  0  0  0  0  0  0  0  0  0
   -0.4697    1.8480    0.0000 H   0  0  0  0  0  0  0  0  0  0  0  0
    2.4689    0.7895    0.0000 H   0  0  0  0  0  0  0  0  0  0  0  0
    2.6953    1.9340    0.0000 H   0  0  0  0  0  0  0  0  0  0  0  0
    1.5507    2.1603    0.0000 H   0  0  0  0  0  0  0  0  0  0  0  0
    2.0691   -0.4653    0.0000 H   0  0  0  0  0  0  0  0  0  0  0  0
    2.5945    0.0623    0.0000 H   0  0  0  0  0  0  0  0  0  0  0  0
    0.8854   -1.0714    0.0000 H   0  0  0  0  0  0  0  0  0  0  0  0
    1.6760   -1.1159    0.0000 H   0  0  0  0  0  0  0  0  0  0  0  0
   -0.3410   -0.7749    0.0000 H   0  0  0  0  0  0  0  0  0  0  0  0
    0.3237   -2.1006    0.0000 H   0  0  0  0  0  0  0  0  0  0  0  0
    1.0945   -2.5070    0.0000 H   0  0  0  0  0  0  0  0  0  0  0  0
    1.7999   -1.9953    0.0000 H   0  0  0  0  0  0  0  0  0  0  0  0
   -1.0983   -2.0515    0.0000 H   0  0  0  0  0  0  0  0  0  0  0  0
   -0.6308   -2.4439    0.0000 H   0  0  0  0  0  0  0  0  0  0  0  0
   -1.2259   -1.8133    0.0000 H   0  0  0  0  0  0  0  0  0  0  0  0
   -1.5189   -0.4580    0.0000 H   0  0  0  0  0  0  0  0  0  0  0  0
  1  2  1  0  0  0  0
  1 22  1  0  0  0  0
  1 23  1  0  0  0  0
  1 24  1  0  0  0  0
  2  3  2  0  0  0  0
 16  2  1  0  0  0  0
  3  4  1  0  0  0  0
  3 25  1  0  0  0  0
  5  4  1  0  0  0  0
  5  6  1  0  0  0  0
 17  5  1  0  0  0  0
  5 26  1  1  0  0  0
  7  6  1  0  0  0  0
  7  8  1  1  0  0  0
  7  9  1  0  0  0  0
  7 19  1  0  0  0  0
  8 27  1  0  0  0  0
  8 28  1  0  0  0  0
  8 29  1  0  0  0  0
  9 10  1  0  0  0  0
  9 30  1  0  0  0  0
  9 31  1  0  0  0  0
 11 10  1  0  0  0  0
 10 32  1  0  0  0  0
 10 33  1  0  0  0  0
 11 20  1  6  0  0  0
 11 12  1  0  0  0  0
 17 11  1  0  0  0  0
 12 13  1  0  0  0  0
 12 14  1  1  0  0  0
 12 34  1  6  0  0  0
 13 35  1  0  0  0  0
 13 36  1  0  0  0  0
 13 37  1  0  0  0  0
 14 15  1  0  0  0  0
 14 38  1  0  0  0  0
 14 39  1  0  0  0  0
 16 15  1  0  0  0  0
 15 40  1  0  0  0  0
 15 41  1  0  0  0  0
 16 21  1  6  0  0  0
 17 16  1  0  0  0  0
 17 18  1  6  0  0  0
 18 19  1  0  0  0  0
M  END
