
  Mrv171c004271813302D          

 46 48  0  0  0  0            999 V2000
   -1.9567   -2.9142    0.0000 C   0  0  0  0  0  0  0  0  0  0  0  0
   -1.2709   -2.4555    0.0000 O   0  0  0  0  0  0  0  0  0  0  0  0
   -1.3252   -1.6323    0.0000 C   0  0  0  0  0  0  0  0  0  0  0  0
   -0.6395   -1.1737    0.0000 C   0  0  0  0  0  0  0  0  0  0  0  0
   -0.6938   -0.3505    0.0000 C   0  0  2  0  0  0  0  0  0  0  0  0
   -1.5220   -0.1592    0.0000 C   0  0  0  0  0  0  0  0  0  0  0  0
   -1.6537    0.6758    0.0000 C   0  0  0  0  0  0  0  0  0  0  0  0
   -0.9248    1.1145    0.0000 C   0  0  0  0  0  0  0  0  0  0  0  0
   -0.1074    0.8375    0.0000 C   0  0  2  0  0  0  0  0  0  0  0  0
    0.4566    1.5413    0.0000 C   0  0  0  0  0  0  0  0  0  0  0  0
    1.3481    1.7209    0.0000 C   0  0  0  0  0  0  0  0  0  0  0  0
    1.8834    0.9719    0.0000 C   0  0  1  0  0  0  0  0  0  0  0  0
    2.6843    1.1697    0.0000 C   0  0  0  0  0  0  0  0  0  0  0  0
    1.1080    1.0697    0.0000 O   0  0  0  0  0  0  0  0  0  0  0  0
    0.8002    0.3532    0.0000 O   0  0  0  0  0  0  0  0  0  0  0  0
    0.1134   -0.0478    0.0000 C   0  0  1  0  0  0  0  0  0  0  0  0
    0.9789   -0.3523    0.0000 C   0  0  1  0  0  0  0  0  0  0  0  0
    1.0459   -1.1746    0.0000 O   0  0  0  0  0  0  0  0  0  0  0  0
    1.7915   -1.5276    0.0000 C   0  0  0  0  0  0  0  0  0  0  0  0
    1.7604    0.0756    0.0000 O   0  0  0  0  0  0  0  0  0  0  0  0
   -0.7481    0.4727    0.0000 H   0  0  0  0  0  0  0  0  0  0  0  0
    0.6985    0.6610    0.0000 H   0  0  0  0  0  0  0  0  0  0  0  0
    1.7051   -0.7436    0.0000 H   0  0  0  0  0  0  0  0  0  0  0  0
   -2.4153   -2.2284    0.0000 H   0  0  0  0  0  0  0  0  0  0  0  0
   -2.6425   -3.3728    0.0000 H   0  0  0  0  0  0  0  0  0  0  0  0
   -1.4980   -3.5999    0.0000 H   0  0  0  0  0  0  0  0  0  0  0  0
   -1.8230   -0.9744    0.0000 H   0  0  0  0  0  0  0  0  0  0  0  0
   -2.1502   -1.6387    0.0000 H   0  0  0  0  0  0  0  0  0  0  0  0
   -0.1417   -1.8316    0.0000 H   0  0  0  0  0  0  0  0  0  0  0  0
    0.1855   -1.1673    0.0000 H   0  0  0  0  0  0  0  0  0  0  0  0
   -2.3430   -0.0779    0.0000 H   0  0  0  0  0  0  0  0  0  0  0  0
   -1.1300   -0.8851    0.0000 H   0  0  0  0  0  0  0  0  0  0  0  0
   -2.1554    1.3307    0.0000 H   0  0  0  0  0  0  0  0  0  0  0  0
   -2.4778    0.6391    0.0000 H   0  0  0  0  0  0  0  0  0  0  0  0
   -0.6512    1.8928    0.0000 H   0  0  0  0  0  0  0  0  0  0  0  0
   -1.3582    1.8165    0.0000 H   0  0  0  0  0  0  0  0  0  0  0  0
    0.3574    2.3603    0.0000 H   0  0  0  0  0  0  0  0  0  0  0  0
   -0.2255    2.0053    0.0000 H   0  0  0  0  0  0  0  0  0  0  0  0
    1.9692    2.2638    0.0000 H   0  0  0  0  0  0  0  0  0  0  0  0
    1.2649    2.5417    0.0000 H   0  0  0  0  0  0  0  0  0  0  0  0
    2.8821    0.3688    0.0000 H   0  0  0  0  0  0  0  0  0  0  0  0
    3.4853    1.3675    0.0000 H   0  0  0  0  0  0  0  0  0  0  0  0
    2.4866    1.9706    0.0000 H   0  0  0  0  0  0  0  0  0  0  0  0
    1.2620   -2.1603    0.0000 H   0  0  0  0  0  0  0  0  0  0  0  0
    2.2703   -2.1995    0.0000 H   0  0  0  0  0  0  0  0  0  0  0  0
    2.5623   -1.2336    0.0000 H   0  0  0  0  0  0  0  0  0  0  0  0
  1  2  1  0  0  0  0
  1 24  1  0  0  0  0
  1 25  1  0  0  0  0
  1 26  1  0  0  0  0
  2  3  1  0  0  0  0
  3  4  1  0  0  0  0
  3 27  1  0  0  0  0
  3 28  1  0  0  0  0
  5  4  1  0  0  0  0
  4 29  1  0  0  0  0
  4 30  1  0  0  0  0
  5 21  1  1  0  0  0
  5  6  1  6  0  0  0
 16  5  1  0  0  0  0
  6  7  1  0  0  0  0
  6 31  1  0  0  0  0
  6 32  1  0  0  0  0
  7  8  1  0  0  0  0
  7 33  1  0  0  0  0
  7 34  1  0  0  0  0
  9  8  1  0  0  0  0
  8 35  1  0  0  0  0
  8 36  1  0  0  0  0
  9 22  1  1  0  0  0
  9 10  1  0  0  0  0
 16  9  1  0  0  0  0
 10 11  1  0  0  0  0
 10 37  1  0  0  0  0
 10 38  1  0  0  0  0
 12 11  1  0  0  0  0
 11 39  1  0  0  0  0
 11 40  1  0  0  0  0
 12 13  1  1  0  0  0
 12 14  1  0  0  0  0
 12 20  1  0  0  0  0
 13 41  1  0  0  0  0
 13 42  1  0  0  0  0
 13 43  1  0  0  0  0
 14 15  1  0  0  0  0
 16 15  1  1  0  0  0
 16 17  1  0  0  0  0
 17 23  1  1  0  0  0
 17 18  1  0  0  0  0
 17 20  1  0  0  0  0
 18 19  1  0  0  0  0
 19 44  1  0  0  0  0
 19 45  1  0  0  0  0
 19 46  1  0  0  0  0
M  END
