
  Mrv171c004271813302D          

 44 46  0  0  0  0            999 V2000
   -1.5674   -0.0691    0.0000 C   0  0  0  0  0  0  0  0  0  0  0  0
   -0.8337    0.3083    0.0000 C   0  0  1  0  0  0  0  0  0  0  0  0
   -0.8472    1.1724    0.0000 C   0  0  0  0  0  0  0  0  0  0  0  0
   -0.1302    1.6460    0.0000 C   0  0  0  0  0  0  0  0  0  0  0  0
    0.6140    1.1725    0.0000 C   0  0  2  0  0  0  0  0  0  0  0  0
    1.3436    1.5576    0.0000 C   0  0  1  0  0  0  0  0  0  0  0  0
    1.3750    2.3820    0.0000 C   0  0  0  0  0  0  0  0  0  0  0  0
    2.0419    1.1183    0.0000 C   0  0  0  0  0  0  0  0  0  0  0  0
    2.7715    1.5033    0.0000 O   0  0  0  0  0  0  0  0  0  0  0  0
    2.0106    0.2939    0.0000 O   0  0  0  0  0  0  0  0  0  0  0  0
    1.2809   -0.0912    0.0000 C   0  0  1  0  0  0  0  0  0  0  0  0
    1.2496   -0.9156    0.0000 O   0  0  0  0  0  0  0  0  0  0  0  0
    0.5200   -1.3007    0.0000 C   0  0  0  0  0  0  0  0  0  0  0  0
    1.0259   -1.9523    0.0000 C   0  0  0  0  0  0  0  0  0  0  0  0
   -0.0339   -1.9121    0.0000 C   0  0  0  0  0  0  0  0  0  0  0  0
   -0.1783   -0.8613    0.0000 O   0  0  0  0  0  0  0  0  0  0  0  0
   -0.1729    0.0768    0.0000 O   0  0  0  0  0  0  0  0  0  0  0  0
    0.5827    0.3481    0.0000 C   0  0  1  0  0  0  0  0  0  0  0  0
   -0.0806   -0.2482    0.0000 C   0  0  1  0  0  0  0  0  0  0  0  0
   -0.5330   -0.9381    0.0000 C   0  0  0  0  0  0  0  0  0  0  0  0
    0.6453    1.9969    0.0000 H   0  0  0  0  0  0  0  0  0  0  0  0
    0.3387   -0.9586    0.0000 H   0  0  0  0  0  0  0  0  0  0  0  0
   -1.9447    0.6646    0.0000 H   0  0  0  0  0  0  0  0  0  0  0  0
   -2.3011   -0.4464    0.0000 H   0  0  0  0  0  0  0  0  0  0  0  0
   -1.1901   -0.8027    0.0000 H   0  0  0  0  0  0  0  0  0  0  0  0
   -0.9002   -0.5141    0.0000 H   0  0  0  0  0  0  0  0  0  0  0  0
   -1.3296    1.8416    0.0000 H   0  0  0  0  0  0  0  0  0  0  0  0
   -1.6719    1.1932    0.0000 H   0  0  0  0  0  0  0  0  0  0  0  0
    0.2422    2.3822    0.0000 H   0  0  0  0  0  0  0  0  0  0  0  0
   -0.5152    2.3757    0.0000 H   0  0  0  0  0  0  0  0  0  0  0  0
    1.3123    0.7332    0.0000 H   0  0  0  0  0  0  0  0  0  0  0  0
    2.1632    2.1384    0.0000 H   0  0  0  0  0  0  0  0  0  0  0  0
    1.8143    3.0803    0.0000 H   0  0  0  0  0  0  0  0  0  0  0  0
    0.8142    2.9871    0.0000 H   0  0  0  0  0  0  0  0  0  0  0  0
    0.5513   -0.4763    0.0000 H   0  0  0  0  0  0  0  0  0  0  0  0
    0.3742   -2.4583    0.0000 H   0  0  0  0  0  0  0  0  0  0  0  0
    1.5318   -2.6040    0.0000 H   0  0  0  0  0  0  0  0  0  0  0  0
    1.6776   -1.4464    0.0000 H   0  0  0  0  0  0  0  0  0  0  0  0
   -0.3504   -1.1502    0.0000 H   0  0  0  0  0  0  0  0  0  0  0  0
   -0.8580   -1.8732    0.0000 H   0  0  0  0  0  0  0  0  0  0  0  0
   -0.4208   -2.6407    0.0000 H   0  0  0  0  0  0  0  0  0  0  0  0
   -1.2869   -1.2730    0.0000 H   0  0  0  0  0  0  0  0  0  0  0  0
   -0.9512   -1.6492    0.0000 H   0  0  0  0  0  0  0  0  0  0  0  0
   -0.4593   -1.7598    0.0000 H   0  0  0  0  0  0  0  0  0  0  0  0
  2  1  1  1  0  0  0
  1 23  1  0  0  0  0
  1 24  1  0  0  0  0
  1 25  1  0  0  0  0
  2  3  1  0  0  0  0
 19  2  1  0  0  0  0
  2 26  1  6  0  0  0
  3  4  1  0  0  0  0
  3 27  1  0  0  0  0
  3 28  1  0  0  0  0
  5  4  1  0  0  0  0
  4 29  1  0  0  0  0
  4 30  1  0  0  0  0
  5  6  1  0  0  0  0
 18  5  1  0  0  0  0
  5 31  1  1  0  0  0
  6 21  1  6  0  0  0
  6  7  1  0  0  0  0
  6  8  1  0  0  0  0
  7 32  1  0  0  0  0
  7 33  1  0  0  0  0
  7 34  1  0  0  0  0
  8  9  2  0  0  0  0
  8 10  1  0  0  0  0
 11 10  1  0  0  0  0
 11 12  1  0  0  0  0
 18 11  1  0  0  0  0
 11 35  1  6  0  0  0
 12 13  1  0  0  0  0
 13 14  1  0  0  0  0
 13 15  1  0  0  0  0
 13 16  1  0  0  0  0
 14 36  1  0  0  0  0
 14 37  1  0  0  0  0
 14 38  1  0  0  0  0
 15 39  1  0  0  0  0
 15 40  1  0  0  0  0
 15 41  1  0  0  0  0
 16 17  1  0  0  0  0
 18 17  1  1  0  0  0
 18 19  1  0  0  0  0
 19 22  1  6  0  0  0
 19 20  1  1  0  0  0
 20 42  1  0  0  0  0
 20 43  1  0  0  0  0
 20 44  1  0  0  0  0
M  END
