
  Mrv171c004271813302D          

 40 43  0  0  0  0            999 V2000
    0.9461    0.8764    0.0000 C   0  0  1  0  0  0  0  0  0  0  0  0
    0.7521    1.7080    0.0000 O   0  0  0  0  0  0  0  0  0  0  0  0
   -0.0858    1.6875    0.0000 C   0  0  1  0  0  0  0  0  0  0  0  0
   -0.6136    2.3215    0.0000 C   0  0  0  0  0  0  0  0  0  0  0  0
   -0.2605    0.8545    0.0000 C   0  0  2  0  0  0  0  0  0  0  0  0
   -1.1030    0.7049    0.0000 C   0  0  0  0  0  0  0  0  0  0  0  0
   -1.4814   -0.0485    0.0000 C   0  0  0  0  0  0  0  0  0  0  0  0
   -0.8775   -0.6271    0.0000 C   0  0  1  0  0  0  0  0  0  0  0  0
   -1.1156   -1.4170    0.0000 C   0  0  0  0  0  0  0  0  0  0  0  0
   -0.0353   -0.4751    0.0000 C   0  0  2  0  0  0  0  0  0  0  0  0
    0.2956   -1.2743    0.0000 C   0  0  0  0  0  0  0  0  0  0  0  0
    1.1193   -1.4525    0.0000 C   0  0  0  0  0  0  0  0  0  0  0  0
    1.5846   -0.7465    0.0000 C   0  0  1  0  0  0  0  0  0  0  0  0
    2.2590   -1.2218    0.0000 C   0  0  0  0  0  0  0  0  0  0  0  0
    2.0932   -0.0707    0.0000 O   0  0  0  0  0  0  0  0  0  0  0  0
    1.3930    0.4160    0.0000 O   0  0  0  0  0  0  0  0  0  0  0  0
    0.4219    0.2912    0.0000 C   0  0  2  0  0  0  0  0  0  0  0  0
    1.0601   -0.0665    0.0000 O   0  0  0  0  0  0  0  0  0  0  0  0
    1.6701    1.2718    0.0000 H   0  0  0  0  0  0  0  0  0  0  0  0
   -0.4703    0.0566    0.0000 H   0  0  0  0  0  0  0  0  0  0  0  0
    0.7875   -0.5351    0.0000 H   0  0  0  0  0  0  0  0  0  0  0  0
   -0.8864    1.4884    0.0000 H   0  0  0  0  0  0  0  0  0  0  0  0
    0.1322    2.6741    0.0000 H   0  0  0  0  0  0  0  0  0  0  0  0
   -0.7686    3.1319    0.0000 H   0  0  0  0  0  0  0  0  0  0  0  0
   -1.4370    2.3741    0.0000 H   0  0  0  0  0  0  0  0  0  0  0  0
   -1.6422    1.3293    0.0000 H   0  0  0  0  0  0  0  0  0  0  0  0
   -1.9217    0.6033    0.0000 H   0  0  0  0  0  0  0  0  0  0  0  0
   -2.2625   -0.3141    0.0000 H   0  0  0  0  0  0  0  0  0  0  0  0
   -1.8752   -0.7734    0.0000 H   0  0  0  0  0  0  0  0  0  0  0  0
   -0.3284   -1.2428    0.0000 H   0  0  0  0  0  0  0  0  0  0  0  0
   -1.8156   -0.9802    0.0000 H   0  0  0  0  0  0  0  0  0  0  0  0
   -1.7205   -1.9780    0.0000 H   0  0  0  0  0  0  0  0  0  0  0  0
   -0.7326   -2.1476    0.0000 H   0  0  0  0  0  0  0  0  0  0  0  0
   -0.1894   -1.9418    0.0000 H   0  0  0  0  0  0  0  0  0  0  0  0
    0.5898   -2.0451    0.0000 H   0  0  0  0  0  0  0  0  0  0  0  0
    1.5501   -2.1561    0.0000 H   0  0  0  0  0  0  0  0  0  0  0  0
    1.9097   -1.6889    0.0000 H   0  0  0  0  0  0  0  0  0  0  0  0
    2.6853   -1.9281    0.0000 H   0  0  0  0  0  0  0  0  0  0  0  0
    3.0738   -1.0924    0.0000 H   0  0  0  0  0  0  0  0  0  0  0  0
    2.4457   -0.4182    0.0000 H   0  0  0  0  0  0  0  0  0  0  0  0
  1 19  1  1  0  0  0
  1  2  1  0  0  0  0
 17  1  1  0  0  0  0
  1 18  1  0  0  0  0
  3  2  1  0  0  0  0
  3  4  1  6  0  0  0
  5  3  1  0  0  0  0
  3 22  1  1  0  0  0
  4 23  1  0  0  0  0
  4 24  1  0  0  0  0
  4 25  1  0  0  0  0
  5 20  1  6  0  0  0
  5  6  1  0  0  0  0
 17  5  1  0  0  0  0
  6  7  1  0  0  0  0
  6 26  1  0  0  0  0
  6 27  1  0  0  0  0
  8  7  1  0  0  0  0
  7 28  1  0  0  0  0
  7 29  1  0  0  0  0
  8  9  1  6  0  0  0
 10  8  1  0  0  0  0
  8 30  1  1  0  0  0
  9 31  1  0  0  0  0
  9 32  1  0  0  0  0
  9 33  1  0  0  0  0
 10 21  1  6  0  0  0
 10 11  1  0  0  0  0
 17 10  1  0  0  0  0
 11 12  1  0  0  0  0
 11 34  1  0  0  0  0
 11 35  1  0  0  0  0
 13 12  1  0  0  0  0
 12 36  1  0  0  0  0
 12 37  1  0  0  0  0
 13 14  1  1  0  0  0
 13 15  1  0  0  0  0
 13 18  1  0  0  0  0
 14 38  1  0  0  0  0
 14 39  1  0  0  0  0
 14 40  1  0  0  0  0
 15 16  1  0  0  0  0
 17 16  1  6  0  0  0
M  END
