
  Mrv171c004271813302D          

 50 53  0  0  0  0            999 V2000
   -0.8608   -2.9914    0.0000 C   0  0  0  0  0  0  0  0  0  0  0  0
   -0.7684   -2.1716    0.0000 C   0  0  0  0  0  0  0  0  0  0  0  0
   -1.4322   -1.6817    0.0000 C   0  0  0  0  0  0  0  0  0  0  0  0
   -1.3398   -0.8619    0.0000 N   0  0  0  0  0  0  0  0  0  0  0  0
   -2.0495   -0.4083    0.0000 C   0  0  0  0  0  0  0  0  0  0  0  0
   -2.8343   -0.6625    0.0000 O   0  0  0  0  0  0  0  0  0  0  0  0
   -1.7377    0.3821    0.0000 C   0  0  2  0  0  0  0  0  0  0  0  0
   -2.3059    0.9802    0.0000 C   0  0  0  0  0  0  0  0  0  0  0  0
   -0.9218    0.6566    0.0000 C   0  0  2  0  0  0  0  0  0  0  0  0
   -1.0098    1.4977    0.0000 C   0  0  0  0  0  0  0  0  0  0  0  0
   -0.4594    2.1148    0.0000 C   0  0  0  0  0  0  0  0  0  0  0  0
    0.2744    1.7094    0.0000 C   0  0  1  0  0  0  0  0  0  0  0  0
    0.9528    2.1789    0.0000 C   0  0  0  0  0  0  0  0  0  0  0  0
    0.3981    0.8603    0.0000 C   0  0  2  0  0  0  0  0  0  0  0  0
    1.2564    0.8036    0.0000 C   0  0  0  0  0  0  0  0  0  0  0  0
    1.7405    0.0997    0.0000 C   0  0  0  0  0  0  0  0  0  0  0  0
    1.2366   -0.6000    0.0000 C   0  0  1  0  0  0  0  0  0  0  0  0
    1.9071   -1.0808    0.0000 C   0  0  0  0  0  0  0  0  0  0  0  0
    0.7369   -1.2997    0.0000 O   0  0  0  0  0  0  0  0  0  0  0  0
    0.0669   -0.7653    0.0000 O   0  0  0  0  0  0  0  0  0  0  0  0
   -0.1818    0.1656    0.0000 C   0  0  1  0  0  0  0  0  0  0  0  0
   -0.5115   -0.5649    0.0000 C   0  0  1  0  0  0  0  0  0  0  0  0
    0.4238   -0.3149    0.0000 O   0  0  0  0  0  0  0  0  0  0  0  0
   -1.1694   -0.2160    0.0000 H   0  0  0  0  0  0  0  0  0  0  0  0
    0.7228    0.1019    0.0000 H   0  0  0  0  0  0  0  0  0  0  0  0
   -1.6170   -3.3213    0.0000 H   0  0  0  0  0  0  0  0  0  0  0  0
   -0.1971   -3.4813    0.0000 H   0  0  0  0  0  0  0  0  0  0  0  0
   -0.0122   -1.8417    0.0000 H   0  0  0  0  0  0  0  0  0  0  0  0
   -2.2560   -1.6371    0.0000 H   0  0  0  0  0  0  0  0  0  0  0  0
   -1.9599   -2.3158    0.0000 H   0  0  0  0  0  0  0  0  0  0  0  0
   -1.7079    1.5485    0.0000 H   0  0  0  0  0  0  0  0  0  0  0  0
   -2.8742    1.5783    0.0000 H   0  0  0  0  0  0  0  0  0  0  0  0
   -2.9040    0.4119    0.0000 H   0  0  0  0  0  0  0  0  0  0  0  0
   -0.2161    1.0841    0.0000 H   0  0  0  0  0  0  0  0  0  0  0  0
   -1.3196    2.2624    0.0000 H   0  0  0  0  0  0  0  0  0  0  0  0
   -1.5838    0.9052    0.0000 H   0  0  0  0  0  0  0  0  0  0  0  0
    0.0869    2.7330    0.0000 H   0  0  0  0  0  0  0  0  0  0  0  0
   -0.4997    2.9388    0.0000 H   0  0  0  0  0  0  0  0  0  0  0  0
    1.0309    1.3803    0.0000 H   0  0  0  0  0  0  0  0  0  0  0  0
    1.7661    2.0408    0.0000 H   0  0  0  0  0  0  0  0  0  0  0  0
    1.2997    2.9274    0.0000 H   0  0  0  0  0  0  0  0  0  0  0  0
    0.3216    2.7102    0.0000 H   0  0  0  0  0  0  0  0  0  0  0  0
    2.0814    0.8055    0.0000 H   0  0  0  0  0  0  0  0  0  0  0  0
    1.7207    1.4855    0.0000 H   0  0  0  0  0  0  0  0  0  0  0  0
    2.2498   -0.5493    0.0000 H   0  0  0  0  0  0  0  0  0  0  0  0
    2.5538   -0.0387    0.0000 H   0  0  0  0  0  0  0  0  0  0  0  0
    1.2117   -1.5248    0.0000 H   0  0  0  0  0  0  0  0  0  0  0  0
    2.0612   -1.8913    0.0000 H   0  0  0  0  0  0  0  0  0  0  0  0
    2.7168   -1.2386    0.0000 H   0  0  0  0  0  0  0  0  0  0  0  0
   -0.5070   -1.3899    0.0000 H   0  0  0  0  0  0  0  0  0  0  0  0
  1  2  2  0  0  0  0
  1 26  1  0  0  0  0
  1 27  1  0  0  0  0
  2  3  1  0  0  0  0
  2 28  1  0  0  0  0
  3  4  1  0  0  0  0
  3 29  1  0  0  0  0
  3 30  1  0  0  0  0
  4  5  1  0  0  0  0
 22  4  1  0  0  0  0
  5  6  2  0  0  0  0
  7  5  1  6  0  0  0
  7 24  1  1  0  0  0
  7  8  1  0  0  0  0
  9  7  1  0  0  0  0
  8 31  1  0  0  0  0
  8 32  1  0  0  0  0
  8 33  1  0  0  0  0
  9 10  1  0  0  0  0
 21  9  1  0  0  0  0
  9 34  1  1  0  0  0
 10 11  1  0  0  0  0
 10 35  1  0  0  0  0
 10 36  1  0  0  0  0
 12 11  1  0  0  0  0
 11 37  1  0  0  0  0
 11 38  1  0  0  0  0
 12 13  1  1  0  0  0
 14 12  1  0  0  0  0
 12 39  1  6  0  0  0
 13 40  1  0  0  0  0
 13 41  1  0  0  0  0
 13 42  1  0  0  0  0
 14 25  1  1  0  0  0
 14 15  1  0  0  0  0
 21 14  1  0  0  0  0
 15 16  1  0  0  0  0
 15 43  1  0  0  0  0
 15 44  1  0  0  0  0
 17 16  1  0  0  0  0
 16 45  1  0  0  0  0
 16 46  1  0  0  0  0
 17 18  1  6  0  0  0
 17 19  1  0  0  0  0
 17 23  1  0  0  0  0
 18 47  1  0  0  0  0
 18 48  1  0  0  0  0
 18 49  1  0  0  0  0
 19 20  1  0  0  0  0
 21 20  1  1  0  0  0
 21 22  1  0  0  0  0
 22 23  1  0  0  0  0
 22 50  1  6  0  0  0
M  END
