
  Mrv171c004271813302D          

 41 44  0  0  0  0            999 V2000
   -0.4494    3.3981    0.0000 C   0  0  0  0  0  0  0  0  0  0  0  0
    0.3389    3.1549    0.0000 C   0  0  0  0  0  0  0  0  0  0  0  0
    0.5225    2.3506    0.0000 C   0  0  0  0  0  0  0  0  0  0  0  0
   -0.0823    1.7894    0.0000 C   0  0  0  0  0  0  0  0  0  0  0  0
    0.1013    0.9851    0.0000 C   0  0  1  0  0  0  0  0  0  0  0  0
    0.9056    0.8015    0.0000 C   0  0  0  0  0  0  0  0  0  0  0  0
    1.2636    0.0582    0.0000 C   0  0  0  0  0  0  0  0  0  0  0  0
    0.9056   -0.6851    0.0000 C   0  0  0  0  0  0  0  0  0  0  0  0
    0.1013   -0.8686    0.0000 C   0  0  1  0  0  0  0  0  0  0  0  0
   -0.0823   -1.6729    0.0000 C   0  0  0  0  0  0  0  0  0  0  0  0
    0.5225   -2.2341    0.0000 C   0  0  0  0  0  0  0  0  0  0  0  0
    0.3389   -3.0384    0.0000 C   0  0  0  0  0  0  0  0  0  0  0  0
   -0.4494   -3.2816    0.0000 C   0  0  0  0  0  0  0  0  0  0  0  0
   -1.0542   -2.7204    0.0000 C   0  0  0  0  0  0  0  0  0  0  0  0
   -0.8706   -1.9161    0.0000 C   0  0  0  0  0  0  0  0  0  0  0  0
   -0.5437   -0.3543    0.0000 C   0  0  0  0  0  0  0  0  0  0  0  0
   -0.5437    0.4707    0.0000 C   0  0  0  0  0  0  0  0  0  0  0  0
   -0.0532   -0.2507    0.0000 O   0  0  0  0  0  0  0  0  0  0  0  0
   -0.0532    0.3672    0.0000 O   0  0  0  0  0  0  0  0  0  0  0  0
   -0.8706    2.0326    0.0000 C   0  0  0  0  0  0  0  0  0  0  0  0
   -1.0542    2.8369    0.0000 C   0  0  0  0  0  0  0  0  0  0  0  0
   -0.6330    4.2024    0.0000 H   0  0  0  0  0  0  0  0  0  0  0  0
    0.9437    3.7160    0.0000 H   0  0  0  0  0  0  0  0  0  0  0  0
    1.3109    2.1074    0.0000 H   0  0  0  0  0  0  0  0  0  0  0  0
    1.6489    1.1595    0.0000 H   0  0  0  0  0  0  0  0  0  0  0  0
    1.0892    1.6059    0.0000 H   0  0  0  0  0  0  0  0  0  0  0  0
    2.0069   -0.2997    0.0000 H   0  0  0  0  0  0  0  0  0  0  0  0
    2.0069    0.4162    0.0000 H   0  0  0  0  0  0  0  0  0  0  0  0
    1.0892   -1.4894    0.0000 H   0  0  0  0  0  0  0  0  0  0  0  0
    1.6489   -1.0430    0.0000 H   0  0  0  0  0  0  0  0  0  0  0  0
    1.2698   -2.5836    0.0000 H   0  0  0  0  0  0  0  0  0  0  0  0
    0.9437   -3.5995    0.0000 H   0  0  0  0  0  0  0  0  0  0  0  0
   -0.6330   -4.0859    0.0000 H   0  0  0  0  0  0  0  0  0  0  0  0
   -1.8425   -2.9636    0.0000 H   0  0  0  0  0  0  0  0  0  0  0  0
   -1.4754   -1.3550    0.0000 H   0  0  0  0  0  0  0  0  0  0  0  0
   -1.3687   -0.3543    0.0000 H   0  0  0  0  0  0  0  0  0  0  0  0
   -1.0581   -0.9993    0.0000 H   0  0  0  0  0  0  0  0  0  0  0  0
   -1.0581    1.1158    0.0000 H   0  0  0  0  0  0  0  0  0  0  0  0
   -1.3687    0.4707    0.0000 H   0  0  0  0  0  0  0  0  0  0  0  0
   -1.6956    2.0232    0.0000 H   0  0  0  0  0  0  0  0  0  0  0  0
   -1.8425    3.0801    0.0000 H   0  0  0  0  0  0  0  0  0  0  0  0
  1  2  1  0  0  0  0
  1 21  2  0  0  0  0
  1 22  1  0  0  0  0
  2  3  2  0  0  0  0
  2 23  1  0  0  0  0
  3  4  1  0  0  0  0
  3 24  1  0  0  0  0
  5  4  1  6  0  0  0
  4 20  2  0  0  0  0
  5  6  1  0  0  0  0
  5 17  1  0  0  0  0
  5 19  1  0  0  0  0
  6  7  1  0  0  0  0
  6 25  1  0  0  0  0
  6 26  1  0  0  0  0
  7  8  1  0  0  0  0
  7 27  1  0  0  0  0
  7 28  1  0  0  0  0
  9  8  1  0  0  0  0
  8 29  1  0  0  0  0
  8 30  1  0  0  0  0
  9 10  1  6  0  0  0
  9 16  1  0  0  0  0
  9 18  1  0  0  0  0
 10 11  1  0  0  0  0
 10 15  2  0  0  0  0
 11 12  2  0  0  0  0
 11 31  1  0  0  0  0
 12 13  1  0  0  0  0
 12 32  1  0  0  0  0
 13 14  2  0  0  0  0
 13 33  1  0  0  0  0
 14 15  1  0  0  0  0
 14 34  1  0  0  0  0
 15 35  1  0  0  0  0
 16 17  1  0  0  0  0
 16 36  1  0  0  0  0
 16 37  1  0  0  0  0
 17 38  1  0  0  0  0
 17 39  1  0  0  0  0
 18 19  1  0  0  0  0
 20 21  1  0  0  0  0
 20 40  1  0  0  0  0
 21 41  1  0  0  0  0
M  END
