
  Mrv171c004271813302D          

 62 65  0  0  0  0            999 V2000
   -1.2863    1.3126    0.0000 C   0  0  0  0  0  0  0  0  0  0  0  0
   -1.1254    0.4878    0.0000 C   0  0  0  0  0  0  0  0  0  0  0  0
   -0.3600    0.1464    0.0000 C   0  0  1  0  0  0  0  0  0  0  0  0
   -0.2553   -0.6720    0.0000 C   0  0  0  0  0  0  0  0  0  0  0  0
   -0.9117   -1.1718    0.0000 C   0  0  0  0  0  0  0  0  0  0  0  0
   -0.8070   -1.9901    0.0000 O   0  0  0  0  0  0  0  0  0  0  0  0
   -1.4634   -2.4899    0.0000 C   0  0  0  0  0  0  0  0  0  0  0  0
   -1.3587   -3.3083    0.0000 C   0  0  0  0  0  0  0  0  0  0  0  0
   -0.5977   -3.6268    0.0000 C   0  0  0  0  0  0  0  0  0  0  0  0
   -0.4930   -4.4451    0.0000 C   0  0  0  0  0  0  0  0  0  0  0  0
   -1.1494   -4.9449    0.0000 C   0  0  0  0  0  0  0  0  0  0  0  0
   -1.9104   -4.6264    0.0000 C   0  0  0  0  0  0  0  0  0  0  0  0
   -2.0151   -3.8081    0.0000 C   0  0  0  0  0  0  0  0  0  0  0  0
    0.3099    0.6814    0.0000 C   0  0  1  0  0  0  0  0  0  0  0  0
    1.0411    0.9646    0.0000 O   0  0  0  0  0  0  0  0  0  0  0  0
    1.1719    1.7313    0.0000 O   0  0  0  0  0  0  0  0  0  0  0  0
    1.9658    1.6828    0.0000 C   0  0  1  0  0  0  0  0  0  0  0  0
    2.7660    1.8835    0.0000 C   0  0  0  0  0  0  0  0  0  0  0  0
    1.8487    0.7918    0.0000 O   0  0  0  0  0  0  0  0  0  0  0  0
    1.1221    0.2625    0.0000 C   0  0  2  0  0  0  0  0  0  0  0  0
    1.1853   -0.5601    0.0000 O   0  0  0  0  0  0  0  0  0  0  0  0
    1.9292   -0.9167    0.0000 C   0  0  0  0  0  0  0  0  0  0  0  0
    1.4449    2.4095    0.0000 C   0  0  0  0  0  0  0  0  0  0  0  0
    2.1878    2.7683    0.0000 C   0  0  0  0  0  0  0  0  0  0  0  0
    1.2184    3.2028    0.0000 C   0  0  0  0  0  0  0  0  0  0  0  0
    0.5612    2.3153    0.0000 C   0  0  0  0  0  0  0  0  0  0  0  0
    0.0704    1.5632    0.0000 C   0  0  1  0  0  0  0  0  0  0  0  0
   -0.7132    1.9230    0.0000 C   0  0  0  0  0  0  0  0  0  0  0  0
   -1.8983    1.8658    0.0000 H   0  0  0  0  0  0  0  0  0  0  0  0
   -2.0989    1.1702    0.0000 H   0  0  0  0  0  0  0  0  0  0  0  0
    0.4047   -0.1633    0.0000 H   0  0  0  0  0  0  0  0  0  0  0  0
    1.8712   -0.0832    0.0000 H   0  0  0  0  0  0  0  0  0  0  0  0
    0.8853    1.4346    0.0000 H   0  0  0  0  0  0  0  0  0  0  0  0
   -1.9312    0.3107    0.0000 H   0  0  0  0  0  0  0  0  0  0  0  0
   -1.4793   -0.2575    0.0000 H   0  0  0  0  0  0  0  0  0  0  0  0
   -0.0084   -1.4591    0.0000 H   0  0  0  0  0  0  0  0  0  0  0  0
    0.4404   -1.1153    0.0000 H   0  0  0  0  0  0  0  0  0  0  0  0
   -1.4488   -0.5456    0.0000 H   0  0  0  0  0  0  0  0  0  0  0  0
   -1.7347   -1.2287    0.0000 H   0  0  0  0  0  0  0  0  0  0  0  0
   -2.0005   -1.8637    0.0000 H   0  0  0  0  0  0  0  0  0  0  0  0
   -2.2864   -2.5468    0.0000 H   0  0  0  0  0  0  0  0  0  0  0  0
    0.0587   -3.1270    0.0000 H   0  0  0  0  0  0  0  0  0  0  0  0
    0.2680   -4.7636    0.0000 H   0  0  0  0  0  0  0  0  0  0  0  0
   -1.0447   -5.7633    0.0000 H   0  0  0  0  0  0  0  0  0  0  0  0
   -2.5668   -5.1262    0.0000 H   0  0  0  0  0  0  0  0  0  0  0  0
   -2.7761   -3.4896    0.0000 H   0  0  0  0  0  0  0  0  0  0  0  0
    2.9666    1.0832    0.0000 H   0  0  0  0  0  0  0  0  0  0  0  0
    3.5662    2.0841    0.0000 H   0  0  0  0  0  0  0  0  0  0  0  0
    2.5654    2.6837    0.0000 H   0  0  0  0  0  0  0  0  0  0  0  0
    1.3912   -1.5421    0.0000 H   0  0  0  0  0  0  0  0  0  0  0  0
    2.3928   -1.5991    0.0000 H   0  0  0  0  0  0  0  0  0  0  0  0
    2.7089   -0.6469    0.0000 H   0  0  0  0  0  0  0  0  0  0  0  0
    2.4385    3.5543    0.0000 H   0  0  0  0  0  0  0  0  0  0  0  0
    1.7648    3.4767    0.0000 H   0  0  0  0  0  0  0  0  0  0  0  0
    2.2822    1.9488    0.0000 H   0  0  0  0  0  0  0  0  0  0  0  0
    1.1976    4.0275    0.0000 H   0  0  0  0  0  0  0  0  0  0  0  0
    0.4631    3.5347    0.0000 H   0  0  0  0  0  0  0  0  0  0  0  0
    0.5968    2.6604    0.0000 H   0  0  0  0  0  0  0  0  0  0  0  0
   -0.0225    2.8983    0.0000 H   0  0  0  0  0  0  0  0  0  0  0  0
   -0.2593    2.2298    0.0000 H   0  0  0  0  0  0  0  0  0  0  0  0
   -0.9820    2.7030    0.0000 H   0  0  0  0  0  0  0  0  0  0  0  0
   -1.4406    2.3122    0.0000 H   0  0  0  0  0  0  0  0  0  0  0  0
  1 29  1  0  0  0  0
  1 30  1  0  0  0  0
  1  2  1  0  0  0  0
  1 28  1  0  0  0  0
  3  2  1  0  0  0  0
  2 34  1  0  0  0  0
  2 35  1  0  0  0  0
  3 31  1  1  0  0  0
  3  4  1  0  0  0  0
 14  3  1  0  0  0  0
  4  5  1  0  0  0  0
  4 36  1  0  0  0  0
  4 37  1  0  0  0  0
  5  6  1  0  0  0  0
  5 38  1  0  0  0  0
  5 39  1  0  0  0  0
  6  7  1  0  0  0  0
  7  8  1  0  0  0  0
  7 40  1  0  0  0  0
  7 41  1  0  0  0  0
  8  9  1  0  0  0  0
  8 13  2  0  0  0  0
  9 10  2  0  0  0  0
  9 42  1  0  0  0  0
 10 11  1  0  0  0  0
 10 43  1  0  0  0  0
 11 12  2  0  0  0  0
 11 44  1  0  0  0  0
 12 13  1  0  0  0  0
 12 45  1  0  0  0  0
 13 46  1  0  0  0  0
 14 15  1  1  0  0  0
 14 20  1  0  0  0  0
 14 27  1  0  0  0  0
 15 16  1  0  0  0  0
 17 16  1  0  0  0  0
 17 18  1  1  0  0  0
 17 19  1  0  0  0  0
 17 23  1  0  0  0  0
 18 47  1  0  0  0  0
 18 48  1  0  0  0  0
 18 49  1  0  0  0  0
 20 19  1  0  0  0  0
 20 32  1  1  0  0  0
 20 21  1  0  0  0  0
 21 22  1  0  0  0  0
 22 50  1  0  0  0  0
 22 51  1  0  0  0  0
 22 52  1  0  0  0  0
 23 24  1  0  0  0  0
 23 25  1  0  0  0  0
 23 26  1  0  0  0  0
 24 53  1  0  0  0  0
 24 54  1  0  0  0  0
 24 55  1  0  0  0  0
 25 56  1  0  0  0  0
 25 57  1  0  0  0  0
 25 58  1  0  0  0  0
 27 26  1  0  0  0  0
 26 59  1  0  0  0  0
 26 60  1  0  0  0  0
 27 33  1  1  0  0  0
 27 28  1  0  0  0  0
 28 61  1  0  0  0  0
 28 62  1  0  0  0  0
M  END
