
  Mrv171c004271813302D          

 39 40  0  0  0  0            999 V2000
    2.0271   -1.2403    0.0000 C   0  0  0  0  0  0  0  0  0  0  0  0
    2.1501   -0.4245    0.0000 O   0  0  0  0  0  0  0  0  0  0  0  0
    1.5051    0.0899    0.0000 C   0  0  1  0  0  0  0  0  0  0  0  0
    2.1501    0.6043    0.0000 C   0  0  0  0  0  0  0  0  0  0  0  0
    1.1471   -0.6534    0.0000 C   0  0  0  0  0  0  0  0  0  0  0  0
    0.3428   -0.8370    0.0000 C   0  0  0  0  0  0  0  0  0  0  0  0
   -0.3022   -0.3226    0.0000 C   0  0  1  0  0  0  0  0  0  0  0  0
   -1.0167   -0.7351    0.0000 C   0  0  1  0  0  0  0  0  0  0  0  0
   -1.0167   -1.5601    0.0000 C   0  0  0  0  0  0  0  0  0  0  0  0
   -1.7311   -0.3226    0.0000 C   0  0  0  0  0  0  0  0  0  0  0  0
   -1.7311    0.5024    0.0000 C   0  0  0  0  0  0  0  0  0  0  0  0
   -1.0167    0.9149    0.0000 C   0  0  0  0  0  0  0  0  0  0  0  0
   -0.3022    0.5024    0.0000 C   0  0  1  0  0  0  0  0  0  0  0  0
   -0.3638    1.3251    0.0000 C   0  0  0  0  0  0  0  0  0  0  0  0
    0.3178    1.7898    0.0000 O   0  0  0  0  0  0  0  0  0  0  0  0
    0.3428    1.0168    0.0000 O   0  0  0  0  0  0  0  0  0  0  0  0
    1.1471    0.8332    0.0000 O   0  0  0  0  0  0  0  0  0  0  0  0
    0.4411    0.0354    0.0000 H   0  0  0  0  0  0  0  0  0  0  0  0
    1.2114   -1.1173    0.0000 H   0  0  0  0  0  0  0  0  0  0  0  0
    1.9042   -2.0560    0.0000 H   0  0  0  0  0  0  0  0  0  0  0  0
    2.8429   -1.3632    0.0000 H   0  0  0  0  0  0  0  0  0  0  0  0
    2.6645   -0.0407    0.0000 H   0  0  0  0  0  0  0  0  0  0  0  0
    2.7951    1.1187    0.0000 H   0  0  0  0  0  0  0  0  0  0  0  0
    1.6357    1.2493    0.0000 H   0  0  0  0  0  0  0  0  0  0  0  0
    1.9622   -0.7813    0.0000 H   0  0  0  0  0  0  0  0  0  0  0  0
    0.6328   -0.0084    0.0000 H   0  0  0  0  0  0  0  0  0  0  0  0
   -0.2940   -1.3614    0.0000 H   0  0  0  0  0  0  0  0  0  0  0  0
    0.2576   -1.6576    0.0000 H   0  0  0  0  0  0  0  0  0  0  0  0
   -1.0167    0.0899    0.0000 H   0  0  0  0  0  0  0  0  0  0  0  0
   -1.7983   -1.2962    0.0000 H   0  0  0  0  0  0  0  0  0  0  0  0
   -1.5168   -2.2162    0.0000 H   0  0  0  0  0  0  0  0  0  0  0  0
   -0.5550   -2.2438    0.0000 H   0  0  0  0  0  0  0  0  0  0  0  0
   -2.5547   -0.3706    0.0000 H   0  0  0  0  0  0  0  0  0  0  0  0
   -2.1845   -1.0119    0.0000 H   0  0  0  0  0  0  0  0  0  0  0  0
   -2.1845    1.1917    0.0000 H   0  0  0  0  0  0  0  0  0  0  0  0
   -2.5547    0.5504    0.0000 H   0  0  0  0  0  0  0  0  0  0  0  0
   -1.0372    1.7396    0.0000 H   0  0  0  0  0  0  0  0  0  0  0  0
   -1.7362    1.3185    0.0000 H   0  0  0  0  0  0  0  0  0  0  0  0
   -0.3830    2.1499    0.0000 H   0  0  0  0  0  0  0  0  0  0  0  0
  1  2  1  0  0  0  0
  1 19  1  0  0  0  0
  1 20  1  0  0  0  0
  1 21  1  0  0  0  0
  3  2  1  1  0  0  0
  3  4  1  6  0  0  0
  3  5  1  0  0  0  0
  3 17  1  0  0  0  0
  4 22  1  0  0  0  0
  4 23  1  0  0  0  0
  4 24  1  0  0  0  0
  5  6  1  0  0  0  0
  5 25  1  0  0  0  0
  5 26  1  0  0  0  0
  7  6  1  0  0  0  0
  6 27  1  0  0  0  0
  6 28  1  0  0  0  0
  7 18  1  6  0  0  0
  7  8  1  0  0  0  0
  7 13  1  0  0  0  0
  8  9  1  0  0  0  0
  8 10  1  0  0  0  0
  8 29  1  6  0  0  0
  9 30  1  0  0  0  0
  9 31  1  0  0  0  0
  9 32  1  0  0  0  0
 10 11  1  0  0  0  0
 10 33  1  0  0  0  0
 10 34  1  0  0  0  0
 11 12  1  0  0  0  0
 11 35  1  0  0  0  0
 11 36  1  0  0  0  0
 13 12  1  0  0  0  0
 12 37  1  0  0  0  0
 12 38  1  0  0  0  0
 13 14  1  1  0  0  0
 13 16  1  0  0  0  0
 14 15  2  0  0  0  0
 14 39  1  0  0  0  0
 16 17  1  0  0  0  0
M  END
