
  Mrv171c004271813302D          

 55 58  0  0  0  0            999 V2000
   -1.2773    0.8398    0.0000 C   0  0  0  0  0  0  0  0  0  0  0  0
   -1.5891    0.0494    0.0000 C   0  0  0  0  0  0  0  0  0  0  0  0
   -2.3740   -0.2048    0.0000 O   0  0  0  0  0  0  0  0  0  0  0  0
   -0.8794   -0.4042    0.0000 N   0  0  0  0  0  0  0  0  0  0  0  0
   -0.9718   -1.2240    0.0000 C   0  0  0  0  0  0  0  0  0  0  0  0
   -1.7280   -1.5538    0.0000 C   0  0  0  0  0  0  0  0  0  0  0  0
   -1.8204   -2.3736    0.0000 C   0  0  0  0  0  0  0  0  0  0  0  0
   -2.5766   -2.7035    0.0000 C   0  0  0  0  0  0  0  0  0  0  0  0
   -2.6690   -3.5233    0.0000 C   0  0  0  0  0  0  0  0  0  0  0  0
   -0.0511   -0.1072    0.0000 C   0  0  2  0  0  0  0  0  0  0  0  0
    0.8841    0.1428    0.0000 O   0  0  0  0  0  0  0  0  0  0  0  0
    1.6970   -0.1423    0.0000 C   0  0  1  0  0  0  0  0  0  0  0  0
    2.3674   -0.6231    0.0000 C   0  0  0  0  0  0  0  0  0  0  0  0
    2.2008    0.5574    0.0000 C   0  0  0  0  0  0  0  0  0  0  0  0
    1.7167    1.2613    0.0000 C   0  0  0  0  0  0  0  0  0  0  0  0
    0.8584    1.3180    0.0000 C   0  0  1  0  0  0  0  0  0  0  0  0
    0.7347    2.1671    0.0000 C   0  0  1  0  0  0  0  0  0  0  0  0
    1.4131    2.6366    0.0000 C   0  0  0  0  0  0  0  0  0  0  0  0
    0.0010    2.5725    0.0000 C   0  0  0  0  0  0  0  0  0  0  0  0
   -0.5494    1.9554    0.0000 C   0  0  0  0  0  0  0  0  0  0  0  0
   -0.4614    1.1144    0.0000 C   0  0  2  0  0  0  0  0  0  0  0  0
    0.2785    0.6233    0.0000 C   0  0  1  0  0  0  0  0  0  0  0  0
    0.5273   -0.3076    0.0000 O   0  0  0  0  0  0  0  0  0  0  0  0
    1.1972   -0.8420    0.0000 O   0  0  0  0  0  0  0  0  0  0  0  0
   -1.5322    1.6245    0.0000 H   0  0  0  0  0  0  0  0  0  0  0  0
   -2.0479    1.1344    0.0000 H   0  0  0  0  0  0  0  0  0  0  0  0
    0.0645    1.5424    0.0000 H   0  0  0  0  0  0  0  0  0  0  0  0
   -0.5986   -1.9597    0.0000 H   0  0  0  0  0  0  0  0  0  0  0  0
   -0.1588   -1.3639    0.0000 H   0  0  0  0  0  0  0  0  0  0  0  0
   -2.1013   -0.8181    0.0000 H   0  0  0  0  0  0  0  0  0  0  0  0
   -2.5411   -1.4139    0.0000 H   0  0  0  0  0  0  0  0  0  0  0  0
   -1.4472   -3.1094    0.0000 H   0  0  0  0  0  0  0  0  0  0  0  0
   -1.0074   -2.5136    0.0000 H   0  0  0  0  0  0  0  0  0  0  0  0
   -2.9499   -1.9678    0.0000 H   0  0  0  0  0  0  0  0  0  0  0  0
   -3.3897   -2.5636    0.0000 H   0  0  0  0  0  0  0  0  0  0  0  0
   -3.4888   -3.4309    0.0000 H   0  0  0  0  0  0  0  0  0  0  0  0
   -2.7614   -4.3431    0.0000 H   0  0  0  0  0  0  0  0  0  0  0  0
   -1.8492   -3.6157    0.0000 H   0  0  0  0  0  0  0  0  0  0  0  0
   -0.0467   -0.9322    0.0000 H   0  0  0  0  0  0  0  0  0  0  0  0
    1.8866   -1.2935    0.0000 H   0  0  0  0  0  0  0  0  0  0  0  0
    3.0378   -1.1039    0.0000 H   0  0  0  0  0  0  0  0  0  0  0  0
    2.8482    0.0473    0.0000 H   0  0  0  0  0  0  0  0  0  0  0  0
    2.9938    0.7851    0.0000 H   0  0  0  0  0  0  0  0  0  0  0  0
    2.4794    1.3340    0.0000 H   0  0  0  0  0  0  0  0  0  0  0  0
    1.7047    2.0862    0.0000 H   0  0  0  0  0  0  0  0  0  0  0  0
    1.3088    0.5442    0.0000 H   0  0  0  0  0  0  0  0  0  0  0  0
    1.4912    1.8380    0.0000 H   0  0  0  0  0  0  0  0  0  0  0  0
    2.2318    2.7387    0.0000 H   0  0  0  0  0  0  0  0  0  0  0  0
    1.6085    3.4381    0.0000 H   0  0  0  0  0  0  0  0  0  0  0  0
    0.7333    3.1040    0.0000 H   0  0  0  0  0  0  0  0  0  0  0  0
   -0.2914    3.3439    0.0000 H   0  0  0  0  0  0  0  0  0  0  0  0
   -0.7372    2.9408    0.0000 H   0  0  0  0  0  0  0  0  0  0  0  0
   -1.1510    2.5200    0.0000 H   0  0  0  0  0  0  0  0  0  0  0  0
   -1.3675    1.8489    0.0000 H   0  0  0  0  0  0  0  0  0  0  0  0
   -0.5689    0.2964    0.0000 H   0  0  0  0  0  0  0  0  0  0  0  0
  1 25  1  0  0  0  0
  1 26  1  0  0  0  0
  1  2  1  0  0  0  0
 21  1  1  0  0  0  0
  2  3  2  0  0  0  0
  2  4  1  0  0  0  0
  4  5  1  0  0  0  0
 10  4  1  0  0  0  0
  5  6  1  0  0  0  0
  5 28  1  0  0  0  0
  5 29  1  0  0  0  0
  6  7  1  0  0  0  0
  6 30  1  0  0  0  0
  6 31  1  0  0  0  0
  7  8  1  0  0  0  0
  7 32  1  0  0  0  0
  7 33  1  0  0  0  0
  8  9  1  0  0  0  0
  8 34  1  0  0  0  0
  8 35  1  0  0  0  0
  9 36  1  0  0  0  0
  9 37  1  0  0  0  0
  9 38  1  0  0  0  0
 10 11  1  0  0  0  0
 22 10  1  0  0  0  0
 10 39  1  6  0  0  0
 12 11  1  0  0  0  0
 12 13  1  6  0  0  0
 12 14  1  0  0  0  0
 12 24  1  0  0  0  0
 13 40  1  0  0  0  0
 13 41  1  0  0  0  0
 13 42  1  0  0  0  0
 14 15  1  0  0  0  0
 14 43  1  0  0  0  0
 14 44  1  0  0  0  0
 16 15  1  0  0  0  0
 15 45  1  0  0  0  0
 15 46  1  0  0  0  0
 16 27  1  1  0  0  0
 16 17  1  0  0  0  0
 22 16  1  0  0  0  0
 17 18  1  6  0  0  0
 17 19  1  0  0  0  0
 17 47  1  1  0  0  0
 18 48  1  0  0  0  0
 18 49  1  0  0  0  0
 18 50  1  0  0  0  0
 19 20  1  0  0  0  0
 19 51  1  0  0  0  0
 19 52  1  0  0  0  0
 21 20  1  0  0  0  0
 20 53  1  0  0  0  0
 20 54  1  0  0  0  0
 22 21  1  0  0  0  0
 21 55  1  1  0  0  0
 22 23  1  1  0  0  0
 23 24  1  0  0  0  0
M  END
