
  Mrv171c004271813302D          

 42 44  0  0  0  0            999 V2000
   -0.2254   -1.7470    0.0000 C   0  0  0  0  0  0  0  0  0  0  0  0
   -0.9132   -1.2913    0.0000 O   0  0  0  0  0  0  0  0  0  0  0  0
   -0.8624   -0.4679    0.0000 C   0  0  2  0  0  0  0  0  0  0  0  0
   -1.6446   -0.1324    0.0000 O   0  0  0  0  0  0  0  0  0  0  0  0
   -1.9829    0.6652    0.0000 C   0  0  0  0  0  0  0  0  0  0  0  0
   -2.7162    0.2873    0.0000 C   0  0  0  0  0  0  0  0  0  0  0  0
   -2.4144    1.3684    0.0000 C   0  0  0  0  0  0  0  0  0  0  0  0
   -1.3086    1.1519    0.0000 O   0  0  0  0  0  0  0  0  0  0  0  0
   -0.7575    0.4891    0.0000 O   0  0  0  0  0  0  0  0  0  0  0  0
   -0.1239   -0.1001    0.0000 C   0  0  1  0  0  0  0  0  0  0  0  0
   -0.0731    0.7233    0.0000 C   0  0  0  0  0  0  0  0  0  0  0  0
    0.6653    1.0911    0.0000 C   0  0  1  0  0  0  0  0  0  0  0  0
    0.7161    1.9145    0.0000 C   0  0  0  0  0  0  0  0  0  0  0  0
    1.3531    0.6354    0.0000 C   0  0  0  0  0  0  0  0  0  0  0  0
    1.3023   -0.1880    0.0000 C   0  0  0  0  0  0  0  0  0  0  0  0
    0.5638   -0.5558    0.0000 C   0  0  1  0  0  0  0  0  0  0  0  0
    0.5131   -1.3792    0.0000 C   0  0  1  0  0  0  0  0  0  0  0  0
    1.2008   -1.8349    0.0000 C   0  0  0  0  0  0  0  0  0  0  0  0
   -0.6403   -2.4601    0.0000 H   0  0  0  0  0  0  0  0  0  0  0  0
    0.0988   -2.5056    0.0000 H   0  0  0  0  0  0  0  0  0  0  0  0
    0.4623   -2.2027    0.0000 H   0  0  0  0  0  0  0  0  0  0  0  0
   -0.1747   -0.9236    0.0000 H   0  0  0  0  0  0  0  0  0  0  0  0
   -3.0941    1.0207    0.0000 H   0  0  0  0  0  0  0  0  0  0  0  0
   -3.4496   -0.0906    0.0000 H   0  0  0  0  0  0  0  0  0  0  0  0
   -2.3383   -0.4460    0.0000 H   0  0  0  0  0  0  0  0  0  0  0  0
   -1.5973    1.4822    0.0000 H   0  0  0  0  0  0  0  0  0  0  0  0
   -2.1914    2.1626    0.0000 H   0  0  0  0  0  0  0  0  0  0  0  0
   -3.0528    1.8909    0.0000 H   0  0  0  0  0  0  0  0  0  0  0  0
   -0.3913    1.4845    0.0000 H   0  0  0  0  0  0  0  0  0  0  0  0
    0.6146    0.2676    0.0000 H   0  0  0  0  0  0  0  0  0  0  0  0
    1.4038    1.4588    0.0000 H   0  0  0  0  0  0  0  0  0  0  0  0
    1.3342    2.4609    0.0000 H   0  0  0  0  0  0  0  0  0  0  0  0
    0.3483    2.6530    0.0000 H   0  0  0  0  0  0  0  0  0  0  0  0
   -0.0924    1.7504    0.0000 H   0  0  0  0  0  0  0  0  0  0  0  0
    2.1095    0.3061    0.0000 H   0  0  0  0  0  0  0  0  0  0  0  0
    2.1442    0.8693    0.0000 H   0  0  0  0  0  0  0  0  0  0  0  0
    1.4231   -1.0042    0.0000 H   0  0  0  0  0  0  0  0  0  0  0  0
    1.9299   -0.7235    0.0000 H   0  0  0  0  0  0  0  0  0  0  0  0
    0.9696   -1.2741    0.0000 H   0  0  0  0  0  0  0  0  0  0  0  0
    1.1090   -2.6548    0.0000 H   0  0  0  0  0  0  0  0  0  0  0  0
    1.8397   -2.3569    0.0000 H   0  0  0  0  0  0  0  0  0  0  0  0
    1.9860   -1.5816    0.0000 H   0  0  0  0  0  0  0  0  0  0  0  0
  1 19  1  0  0  0  0
  1 20  1  0  0  0  0
  1  2  1  0  0  0  0
 17  1  1  0  0  0  0
  3  2  1  0  0  0  0
  3  4  1  0  0  0  0
 10  3  1  0  0  0  0
  3 22  1  1  0  0  0
  4  5  1  0  0  0  0
  5  6  1  0  0  0  0
  5  7  1  0  0  0  0
  5  8  1  0  0  0  0
  6 23  1  0  0  0  0
  6 24  1  0  0  0  0
  6 25  1  0  0  0  0
  7 26  1  0  0  0  0
  7 27  1  0  0  0  0
  7 28  1  0  0  0  0
  8  9  1  0  0  0  0
 10  9  1  6  0  0  0
 10 11  1  0  0  0  0
 10 16  1  0  0  0  0
 12 11  1  0  0  0  0
 11 29  1  0  0  0  0
 11 30  1  0  0  0  0
 12 13  1  0  0  0  0
 12 14  1  0  0  0  0
 12 31  1  6  0  0  0
 13 32  1  0  0  0  0
 13 33  1  0  0  0  0
 13 34  1  0  0  0  0
 14 15  1  0  0  0  0
 14 35  1  0  0  0  0
 14 36  1  0  0  0  0
 16 15  1  0  0  0  0
 15 37  1  0  0  0  0
 15 38  1  0  0  0  0
 16 17  1  0  0  0  0
 16 39  1  6  0  0  0
 17 21  1  6  0  0  0
 17 18  1  0  0  0  0
 18 40  1  0  0  0  0
 18 41  1  0  0  0  0
 18 42  1  0  0  0  0
M  END
