
  Mrv171c004271813302D          

 59 61  0  0  0  0            999 V2000
   -0.6523   -0.3703    0.0000 C   0  0  2  0  0  0  0  0  0  0  0  0
    0.1716   -0.3286    0.0000 O   0  0  0  0  0  0  0  0  0  0  0  0
    0.6197   -1.0213    0.0000 C   0  0  0  0  0  0  0  0  0  0  0  0
   -1.0852   -1.1582    0.0000 O   0  0  0  0  0  0  0  0  0  0  0  0
   -1.9542   -1.3873    0.0000 C   0  0  1  0  0  0  0  0  0  0  0  0
   -2.0517   -2.2066    0.0000 C   0  0  0  0  0  0  0  0  0  0  0  0
   -2.7411   -0.9629    0.0000 C   0  0  0  0  0  0  0  0  0  0  0  0
   -2.7598   -0.0744    0.0000 C   0  0  0  0  0  0  0  0  0  0  0  0
   -2.0760    0.5079    0.0000 C   0  0  1  0  0  0  0  0  0  0  0  0
   -2.5323    1.2395    0.0000 C   0  0  0  0  0  0  0  0  0  0  0  0
   -1.9996    1.8854    0.0000 C   0  0  0  0  0  0  0  0  0  0  0  0
   -1.1610    1.8305    0.0000 C   0  0  0  0  0  0  0  0  0  0  0  0
   -0.7252    1.1145    0.0000 C   0  0  1  0  0  0  0  0  0  0  0  0
    0.0998    1.1145    0.0000 C   0  0  0  0  0  0  0  0  0  0  0  0
    0.5123    0.4001    0.0000 C   0  0  0  0  0  0  0  0  0  0  0  0
    1.3373    0.4001    0.0000 O   0  0  0  0  0  0  0  0  0  0  0  0
    1.7498   -0.3144    0.0000 C   0  0  0  0  0  0  0  0  0  0  0  0
    1.3373   -1.0289    0.0000 O   0  0  0  0  0  0  0  0  0  0  0  0
    2.5748   -0.3144    0.0000 N   0  0  0  0  0  0  0  0  0  0  0  0
    2.9873   -1.0289    0.0000 C   0  0  0  0  0  0  0  0  0  0  0  0
    3.8123   -1.0289    0.0000 C   0  0  0  0  0  0  0  0  0  0  0  0
    2.9873    0.4001    0.0000 C   0  0  0  0  0  0  0  0  0  0  0  0
    3.8123    0.4001    0.0000 C   0  0  0  0  0  0  0  0  0  0  0  0
   -1.1710    0.3822    0.0000 C   0  0  1  0  0  0  0  0  0  0  0  0
   -1.3590   -0.3790    0.0000 O   0  0  0  0  0  0  0  0  0  0  0  0
   -2.1030   -0.6060    0.0000 O   0  0  0  0  0  0  0  0  0  0  0  0
   -0.2873    0.3695    0.0000 H   0  0  0  0  0  0  0  0  0  0  0  0
   -1.8450   -0.2841    0.0000 H   0  0  0  0  0  0  0  0  0  0  0  0
   -0.3210    1.8337    0.0000 H   0  0  0  0  0  0  0  0  0  0  0  0
   -0.2048   -1.0504    0.0000 H   0  0  0  0  0  0  0  0  0  0  0  0
    0.2216   -1.7439    0.0000 H   0  0  0  0  0  0  0  0  0  0  0  0
    1.0356   -1.7338    0.0000 H   0  0  0  0  0  0  0  0  0  0  0  0
   -2.8709   -2.1091    0.0000 H   0  0  0  0  0  0  0  0  0  0  0  0
   -2.1492   -3.0258    0.0000 H   0  0  0  0  0  0  0  0  0  0  0  0
   -1.2325   -2.3040    0.0000 H   0  0  0  0  0  0  0  0  0  0  0  0
   -3.5633   -1.0307    0.0000 H   0  0  0  0  0  0  0  0  0  0  0  0
   -3.1765   -1.6637    0.0000 H   0  0  0  0  0  0  0  0  0  0  0  0
   -3.2919    0.5561    0.0000 H   0  0  0  0  0  0  0  0  0  0  0  0
   -3.5845   -0.0953    0.0000 H   0  0  0  0  0  0  0  0  0  0  0  0
   -3.2340    1.6733    0.0000 H   0  0  0  0  0  0  0  0  0  0  0  0
   -3.2850    0.9018    0.0000 H   0  0  0  0  0  0  0  0  0  0  0  0
   -1.9614    2.7095    0.0000 H   0  0  0  0  0  0  0  0  0  0  0  0
   -2.6259    2.4223    0.0000 H   0  0  0  0  0  0  0  0  0  0  0  0
   -0.4666    2.2761    0.0000 H   0  0  0  0  0  0  0  0  0  0  0  0
   -1.0876    2.6522    0.0000 H   0  0  0  0  0  0  0  0  0  0  0  0
    0.9119    1.2596    0.0000 H   0  0  0  0  0  0  0  0  0  0  0  0
    0.6279    1.7484    0.0000 H   0  0  0  0  0  0  0  0  0  0  0  0
    0.7020   -0.4028    0.0000 H   0  0  0  0  0  0  0  0  0  0  0  0
    1.1593   -0.1118    0.0000 H   0  0  0  0  0  0  0  0  0  0  0  0
    2.2980   -1.4822    0.0000 H   0  0  0  0  0  0  0  0  0  0  0  0
    2.9393   -1.8525    0.0000 H   0  0  0  0  0  0  0  0  0  0  0  0
    3.8123   -1.8539    0.0000 H   0  0  0  0  0  0  0  0  0  0  0  0
    4.6373   -1.0289    0.0000 H   0  0  0  0  0  0  0  0  0  0  0  0
    3.8123   -0.2039    0.0000 H   0  0  0  0  0  0  0  0  0  0  0  0
    2.9393    1.2237    0.0000 H   0  0  0  0  0  0  0  0  0  0  0  0
    2.2980    0.8534    0.0000 H   0  0  0  0  0  0  0  0  0  0  0  0
    4.5745    0.0844    0.0000 H   0  0  0  0  0  0  0  0  0  0  0  0
    4.3957    0.9834    0.0000 H   0  0  0  0  0  0  0  0  0  0  0  0
    3.4966    1.1623    0.0000 H   0  0  0  0  0  0  0  0  0  0  0  0
  1 27  1  1  0  0  0
  1  2  1  0  0  0  0
  1  4  1  0  0  0  0
 24  1  1  0  0  0  0
  2  3  1  0  0  0  0
  3 30  1  0  0  0  0
  3 31  1  0  0  0  0
  3 32  1  0  0  0  0
  5  4  1  0  0  0  0
  5  6  1  6  0  0  0
  5  7  1  0  0  0  0
  5 26  1  0  0  0  0
  6 33  1  0  0  0  0
  6 34  1  0  0  0  0
  6 35  1  0  0  0  0
  7  8  1  0  0  0  0
  7 36  1  0  0  0  0
  7 37  1  0  0  0  0
  9  8  1  0  0  0  0
  8 38  1  0  0  0  0
  8 39  1  0  0  0  0
  9 28  1  6  0  0  0
  9 10  1  0  0  0  0
 24  9  1  0  0  0  0
 10 11  1  0  0  0  0
 10 40  1  0  0  0  0
 10 41  1  0  0  0  0
 11 12  1  0  0  0  0
 11 42  1  0  0  0  0
 11 43  1  0  0  0  0
 13 12  1  0  0  0  0
 12 44  1  0  0  0  0
 12 45  1  0  0  0  0
 13 29  1  6  0  0  0
 13 14  1  0  0  0  0
 24 13  1  0  0  0  0
 14 15  1  0  0  0  0
 14 46  1  0  0  0  0
 14 47  1  0  0  0  0
 15 16  1  0  0  0  0
 15 48  1  0  0  0  0
 15 49  1  0  0  0  0
 16 17  1  0  0  0  0
 17 18  2  0  0  0  0
 17 19  1  0  0  0  0
 19 20  1  0  0  0  0
 19 22  1  0  0  0  0
 20 21  1  0  0  0  0
 20 50  1  0  0  0  0
 20 51  1  0  0  0  0
 21 52  1  0  0  0  0
 21 53  1  0  0  0  0
 21 54  1  0  0  0  0
 22 23  1  0  0  0  0
 22 55  1  0  0  0  0
 22 56  1  0  0  0  0
 23 57  1  0  0  0  0
 23 58  1  0  0  0  0
 23 59  1  0  0  0  0
 24 25  1  6  0  0  0
 25 26  1  0  0  0  0
M  END
