
  Mrv171c004271813302D          

 65 67  0  0  0  0            999 V2000
    0.2575   -0.5230    0.0000 C   0  0  0  0  0  0  0  0  0  0  0  0
   -0.4769   -0.1472    0.0000 O   0  0  0  0  0  0  0  0  0  0  0  0
   -1.1696   -0.5953    0.0000 C   0  0  1  0  0  0  0  0  0  0  0  0
   -1.1505   -1.4940    0.0000 O   0  0  0  0  0  0  0  0  0  0  0  0
   -1.7885   -2.1270    0.0000 C   0  0  1  0  0  0  0  0  0  0  0  0
   -1.4633   -2.8852    0.0000 C   0  0  0  0  0  0  0  0  0  0  0  0
   -2.6822   -2.1528    0.0000 C   0  0  0  0  0  0  0  0  0  0  0  0
   -3.1426   -1.3927    0.0000 C   0  0  0  0  0  0  0  0  0  0  0  0
   -2.8416   -0.5465    0.0000 C   0  0  1  0  0  0  0  0  0  0  0  0
   -3.6025   -0.1411    0.0000 C   0  0  0  0  0  0  0  0  0  0  0  0
   -3.4641    0.6846    0.0000 C   0  0  0  0  0  0  0  0  0  0  0  0
   -2.7105    1.0564    0.0000 C   0  0  0  0  0  0  0  0  0  0  0  0
   -1.9751    0.6542    0.0000 C   0  0  1  0  0  0  0  0  0  0  0  0
   -1.2606    1.0667    0.0000 C   0  0  0  0  0  0  0  0  0  0  0  0
   -0.5461    0.6542    0.0000 C   0  0  0  0  0  0  0  0  0  0  0  0
    0.1683    1.0667    0.0000 O   0  0  0  0  0  0  0  0  0  0  0  0
    0.8828    0.6542    0.0000 C   0  0  0  0  0  0  0  0  0  0  0  0
    0.8828   -0.1708    0.0000 O   0  0  0  0  0  0  0  0  0  0  0  0
    1.5973    1.0667    0.0000 C   0  0  0  0  0  0  0  0  0  0  0  0
    2.3117    0.6542    0.0000 N   0  0  0  0  0  0  0  0  0  0  0  0
    3.0262    1.0667    0.0000 C   0  0  0  0  0  0  0  0  0  0  0  0
    3.0262    1.8917    0.0000 O   0  0  0  0  0  0  0  0  0  0  0  0
    3.7407    0.6542    0.0000 O   0  0  0  0  0  0  0  0  0  0  0  0
    4.4552    1.0667    0.0000 C   0  0  0  0  0  0  0  0  0  0  0  0
    5.1696    1.4792    0.0000 C   0  0  0  0  0  0  0  0  0  0  0  0
    4.8677    0.3522    0.0000 C   0  0  0  0  0  0  0  0  0  0  0  0
    4.0427    1.7812    0.0000 C   0  0  0  0  0  0  0  0  0  0  0  0
   -1.9949   -0.2029    0.0000 C   0  0  1  0  0  0  0  0  0  0  0  0
   -1.7772   -0.9561    0.0000 O   0  0  0  0  0  0  0  0  0  0  0  0
   -2.3080   -1.5247    0.0000 O   0  0  0  0  0  0  0  0  0  0  0  0
   -1.2233    0.2280    0.0000 H   0  0  0  0  0  0  0  0  0  0  0  0
   -2.2456   -1.1170    0.0000 H   0  0  0  0  0  0  0  0  0  0  0  0
   -1.9846    1.4792    0.0000 H   0  0  0  0  0  0  0  0  0  0  0  0
   -0.4419   -0.9605    0.0000 H   0  0  0  0  0  0  0  0  0  0  0  0
    0.2741   -1.3479    0.0000 H   0  0  0  0  0  0  0  0  0  0  0  0
    0.9740   -0.9322    0.0000 H   0  0  0  0  0  0  0  0  0  0  0  0
   -2.2215   -3.2104    0.0000 H   0  0  0  0  0  0  0  0  0  0  0  0
   -1.1381   -3.6434    0.0000 H   0  0  0  0  0  0  0  0  0  0  0  0
   -0.7051   -2.5600    0.0000 H   0  0  0  0  0  0  0  0  0  0  0  0
   -3.3603   -2.6226    0.0000 H   0  0  0  0  0  0  0  0  0  0  0  0
   -2.7088   -2.9774    0.0000 H   0  0  0  0  0  0  0  0  0  0  0  0
   -3.9187   -1.1128    0.0000 H   0  0  0  0  0  0  0  0  0  0  0  0
   -3.8464   -1.8232    0.0000 H   0  0  0  0  0  0  0  0  0  0  0  0
   -4.4272   -0.1163    0.0000 H   0  0  0  0  0  0  0  0  0  0  0  0
   -4.0856   -0.8099    0.0000 H   0  0  0  0  0  0  0  0  0  0  0  0
   -3.8431    1.4174    0.0000 H   0  0  0  0  0  0  0  0  0  0  0  0
   -4.2751    0.8364    0.0000 H   0  0  0  0  0  0  0  0  0  0  0  0
   -2.3319    1.7894    0.0000 H   0  0  0  0  0  0  0  0  0  0  0  0
   -3.0577    1.8047    0.0000 H   0  0  0  0  0  0  0  0  0  0  0  0
   -0.6298    1.5984    0.0000 H   0  0  0  0  0  0  0  0  0  0  0  0
   -1.1202    1.8797    0.0000 H   0  0  0  0  0  0  0  0  0  0  0  0
    0.0196    0.0538    0.0000 H   0  0  0  0  0  0  0  0  0  0  0  0
    0.2701    0.5344    0.0000 H   0  0  0  0  0  0  0  0  0  0  0  0
    1.9675    1.8040    0.0000 H   0  0  0  0  0  0  0  0  0  0  0  0
    1.2270    1.8040    0.0000 H   0  0  0  0  0  0  0  0  0  0  0  0
    2.3117   -0.1708    0.0000 H   0  0  0  0  0  0  0  0  0  0  0  0
    5.5821    0.7647    0.0000 H   0  0  0  0  0  0  0  0  0  0  0  0
    5.8841    1.8917    0.0000 H   0  0  0  0  0  0  0  0  0  0  0  0
    4.7571    2.1937    0.0000 H   0  0  0  0  0  0  0  0  0  0  0  0
    4.0497    0.2446    0.0000 H   0  0  0  0  0  0  0  0  0  0  0  0
    4.6541   -0.4446    0.0000 H   0  0  0  0  0  0  0  0  0  0  0  0
    5.5222   -0.1500    0.0000 H   0  0  0  0  0  0  0  0  0  0  0  0
    3.9350    2.5991    0.0000 H   0  0  0  0  0  0  0  0  0  0  0  0
    3.2458    1.9947    0.0000 H   0  0  0  0  0  0  0  0  0  0  0  0
    3.5404    1.1267    0.0000 H   0  0  0  0  0  0  0  0  0  0  0  0
  1  2  1  0  0  0  0
  1 34  1  0  0  0  0
  1 35  1  0  0  0  0
  1 36  1  0  0  0  0
  3  2  1  0  0  0  0
  3 31  1  6  0  0  0
  3  4  1  0  0  0  0
 28  3  1  0  0  0  0
  5  4  1  0  0  0  0
  5  6  1  6  0  0  0
  5  7  1  0  0  0  0
  5 30  1  0  0  0  0
  6 37  1  0  0  0  0
  6 38  1  0  0  0  0
  6 39  1  0  0  0  0
  7  8  1  0  0  0  0
  7 40  1  0  0  0  0
  7 41  1  0  0  0  0
  9  8  1  0  0  0  0
  8 42  1  0  0  0  0
  8 43  1  0  0  0  0
  9 32  1  6  0  0  0
  9 10  1  0  0  0  0
 28  9  1  0  0  0  0
 10 11  1  0  0  0  0
 10 44  1  0  0  0  0
 10 45  1  0  0  0  0
 11 12  1  0  0  0  0
 11 46  1  0  0  0  0
 11 47  1  0  0  0  0
 13 12  1  0  0  0  0
 12 48  1  0  0  0  0
 12 49  1  0  0  0  0
 13 33  1  6  0  0  0
 13 14  1  0  0  0  0
 28 13  1  0  0  0  0
 14 15  1  0  0  0  0
 14 50  1  0  0  0  0
 14 51  1  0  0  0  0
 15 16  1  0  0  0  0
 15 52  1  0  0  0  0
 15 53  1  0  0  0  0
 16 17  1  0  0  0  0
 17 18  2  0  0  0  0
 17 19  1  0  0  0  0
 19 20  1  0  0  0  0
 19 54  1  0  0  0  0
 19 55  1  0  0  0  0
 20 21  1  0  0  0  0
 20 56  1  0  0  0  0
 21 22  2  0  0  0  0
 21 23  1  0  0  0  0
 23 24  1  0  0  0  0
 24 25  1  0  0  0  0
 24 26  1  0  0  0  0
 24 27  1  0  0  0  0
 25 57  1  0  0  0  0
 25 58  1  0  0  0  0
 25 59  1  0  0  0  0
 26 60  1  0  0  0  0
 26 61  1  0  0  0  0
 26 62  1  0  0  0  0
 27 63  1  0  0  0  0
 27 64  1  0  0  0  0
 27 65  1  0  0  0  0
 28 29  1  6  0  0  0
 29 30  1  0  0  0  0
M  END
