
  Mrv171c004271813302D          

 51 54  0  0  0  0            999 V2000
   -1.4353    0.2535    0.0000 C   0  0  0  0  0  0  0  0  0  0  0  0
   -2.2008   -0.0879    0.0000 C   0  0  0  0  0  0  0  0  0  0  0  0
   -2.3616   -0.9128    0.0000 C   0  0  0  0  0  0  0  0  0  0  0  0
   -1.7886   -1.5231    0.0000 C   0  0  1  0  0  0  0  0  0  0  0  0
   -1.9470   -2.3328    0.0000 C   0  0  0  0  0  0  0  0  0  0  0  0
   -1.0050   -1.1633    0.0000 C   0  0  2  0  0  0  0  0  0  0  0  0
   -0.5141   -1.9155    0.0000 C   0  0  0  0  0  0  0  0  0  0  0  0
    0.3696   -2.0097    0.0000 C   0  0  0  0  0  0  0  0  0  0  0  0
    0.8904   -1.2830    0.0000 C   0  0  1  0  0  0  0  0  0  0  0  0
    1.6906   -1.4836    0.0000 C   0  0  0  0  0  0  0  0  0  0  0  0
    0.0965   -1.3314    0.0000 O   0  0  0  0  0  0  0  0  0  0  0  0
   -0.0343   -0.5647    0.0000 O   0  0  0  0  0  0  0  0  0  0  0  0
   -0.7655   -0.2816    0.0000 C   0  0  1  0  0  0  0  0  0  0  0  0
    0.0467    0.1374    0.0000 C   0  0  2  0  0  0  0  0  0  0  0  0
    0.1099    0.9600    0.0000 O   0  0  0  0  0  0  0  0  0  0  0  0
    0.8539    1.3165    0.0000 C   0  0  0  0  0  0  0  0  0  0  0  0
    1.5347    0.8505    0.0000 O   0  0  0  0  0  0  0  0  0  0  0  0
    0.9171    2.1391    0.0000 C   0  0  0  0  0  0  0  0  0  0  0  0
    1.6610    2.4957    0.0000 C   0  0  0  0  0  0  0  0  0  0  0  0
    1.7242    3.3182    0.0000 C   0  0  0  0  0  0  0  0  0  0  0  0
    2.4682    3.6748    0.0000 C   0  0  0  0  0  0  0  0  0  0  0  0
    3.1490    3.2088    0.0000 C   0  0  0  0  0  0  0  0  0  0  0  0
    3.0858    2.3862    0.0000 C   0  0  0  0  0  0  0  0  0  0  0  0
    2.3418    2.0297    0.0000 C   0  0  0  0  0  0  0  0  0  0  0  0
    0.7734   -0.3919    0.0000 O   0  0  0  0  0  0  0  0  0  0  0  0
   -0.9710    0.9354    0.0000 H   0  0  0  0  0  0  0  0  0  0  0  0
   -1.7131    1.0303    0.0000 H   0  0  0  0  0  0  0  0  0  0  0  0
   -0.1901   -1.0348    0.0000 H   0  0  0  0  0  0  0  0  0  0  0  0
    0.7959    0.4830    0.0000 H   0  0  0  0  0  0  0  0  0  0  0  0
   -2.5547    0.6573    0.0000 H   0  0  0  0  0  0  0  0  0  0  0  0
   -3.0066    0.0891    0.0000 H   0  0  0  0  0  0  0  0  0  0  0  0
   -3.1742   -0.7703    0.0000 H   0  0  0  0  0  0  0  0  0  0  0  0
   -2.9737   -1.4660    0.0000 H   0  0  0  0  0  0  0  0  0  0  0  0
   -1.1402   -2.0333    0.0000 H   0  0  0  0  0  0  0  0  0  0  0  0
   -2.6903   -1.9749    0.0000 H   0  0  0  0  0  0  0  0  0  0  0  0
   -2.4811   -2.9615    0.0000 H   0  0  0  0  0  0  0  0  0  0  0  0
   -1.4737   -3.0085    0.0000 H   0  0  0  0  0  0  0  0  0  0  0  0
   -0.8618   -2.6637    0.0000 H   0  0  0  0  0  0  0  0  0  0  0  0
   -0.1079   -2.6335    0.0000 H   0  0  0  0  0  0  0  0  0  0  0  0
    0.8221   -2.6994    0.0000 H   0  0  0  0  0  0  0  0  0  0  0  0
    1.1613   -2.2416    0.0000 H   0  0  0  0  0  0  0  0  0  0  0  0
    2.1961   -2.1356    0.0000 H   0  0  0  0  0  0  0  0  0  0  0  0
    2.4634   -1.1947    0.0000 H   0  0  0  0  0  0  0  0  0  0  0  0
    1.6444   -0.6599    0.0000 H   0  0  0  0  0  0  0  0  0  0  0  0
    0.5179    2.8611    0.0000 H   0  0  0  0  0  0  0  0  0  0  0  0
    0.0996    2.2500    0.0000 H   0  0  0  0  0  0  0  0  0  0  0  0
    1.0434    3.7843    0.0000 H   0  0  0  0  0  0  0  0  0  0  0  0
    2.5314    4.4974    0.0000 H   0  0  0  0  0  0  0  0  0  0  0  0
    3.8929    3.5654    0.0000 H   0  0  0  0  0  0  0  0  0  0  0  0
    3.7666    1.9202    0.0000 H   0  0  0  0  0  0  0  0  0  0  0  0
    2.2786    1.2071    0.0000 H   0  0  0  0  0  0  0  0  0  0  0  0
  1 26  1  0  0  0  0
  1 27  1  0  0  0  0
  1  2  1  0  0  0  0
 13  1  1  0  0  0  0
  2  3  1  0  0  0  0
  2 30  1  0  0  0  0
  2 31  1  0  0  0  0
  4  3  1  0  0  0  0
  3 32  1  0  0  0  0
  3 33  1  0  0  0  0
  4  5  1  6  0  0  0
  6  4  1  0  0  0  0
  4 34  1  1  0  0  0
  5 35  1  0  0  0  0
  5 36  1  0  0  0  0
  5 37  1  0  0  0  0
  6 28  1  6  0  0  0
  6  7  1  0  0  0  0
  6 13  1  0  0  0  0
  7  8  1  0  0  0  0
  7 38  1  0  0  0  0
  7 39  1  0  0  0  0
  9  8  1  0  0  0  0
  8 40  1  0  0  0  0
  8 41  1  0  0  0  0
  9 10  1  6  0  0  0
  9 11  1  0  0  0  0
  9 25  1  0  0  0  0
 10 42  1  0  0  0  0
 10 43  1  0  0  0  0
 10 44  1  0  0  0  0
 11 12  1  0  0  0  0
 13 12  1  6  0  0  0
 13 14  1  0  0  0  0
 14 29  1  1  0  0  0
 14 15  1  0  0  0  0
 14 25  1  0  0  0  0
 15 16  1  0  0  0  0
 16 17  2  0  0  0  0
 16 18  1  0  0  0  0
 18 19  1  0  0  0  0
 18 45  1  0  0  0  0
 18 46  1  0  0  0  0
 19 20  1  0  0  0  0
 19 24  2  0  0  0  0
 20 21  2  0  0  0  0
 20 47  1  0  0  0  0
 21 22  1  0  0  0  0
 21 48  1  0  0  0  0
 22 23  2  0  0  0  0
 22 49  1  0  0  0  0
 23 24  1  0  0  0  0
 23 50  1  0  0  0  0
 24 51  1  0  0  0  0
M  END
