
  Mrv171c004271813302D          

 49 52  0  0  0  0            999 V2000
    0.0925    1.9265    0.0000 C   0  0  0  0  0  0  0  0  0  0  0  0
   -0.4579    1.3095    0.0000 C   0  0  0  0  0  0  0  0  0  0  0  0
   -0.3699    0.4684    0.0000 C   0  0  1  0  0  0  0  0  0  0  0  0
   -1.1858    0.1938    0.0000 C   0  0  1  0  0  0  0  0  0  0  0  0
   -1.7540    0.7919    0.0000 C   0  0  0  0  0  0  0  0  0  0  0  0
   -1.4976   -0.5966    0.0000 C   0  0  1  0  0  0  0  0  0  0  0  0
   -2.2824   -0.8508    0.0000 O   0  0  0  0  0  0  0  0  0  0  0  0
   -2.4547   -1.6576    0.0000 C   0  0  0  0  0  0  0  0  0  0  0  0
   -3.2396   -1.9117    0.0000 C   0  0  0  0  0  0  0  0  0  0  0  0
   -0.7879   -1.0501    0.0000 O   0  0  0  0  0  0  0  0  0  0  0  0
    0.0404   -0.7532    0.0000 C   0  0  2  0  0  0  0  0  0  0  0  0
    0.9757   -0.5032    0.0000 O   0  0  0  0  0  0  0  0  0  0  0  0
    1.7885   -0.7883    0.0000 C   0  0  1  0  0  0  0  0  0  0  0  0
    2.4590   -1.2691    0.0000 C   0  0  0  0  0  0  0  0  0  0  0  0
    2.2924   -0.0885    0.0000 C   0  0  0  0  0  0  0  0  0  0  0  0
    1.8083    0.6153    0.0000 C   0  0  0  0  0  0  0  0  0  0  0  0
    0.9499    0.6720    0.0000 C   0  0  1  0  0  0  0  0  0  0  0  0
    0.8263    1.5212    0.0000 C   0  0  1  0  0  0  0  0  0  0  0  0
    1.5047    1.9906    0.0000 C   0  0  0  0  0  0  0  0  0  0  0  0
    1.4373    2.8129    0.0000 O   0  0  0  0  0  0  0  0  0  0  0  0
    0.3701   -0.0227    0.0000 C   0  0  1  0  0  0  0  0  0  0  0  0
    0.6188   -0.9536    0.0000 O   0  0  0  0  0  0  0  0  0  0  0  0
    1.2888   -1.4880    0.0000 O   0  0  0  0  0  0  0  0  0  0  0  0
    0.3598    2.7070    0.0000 H   0  0  0  0  0  0  0  0  0  0  0  0
   -0.4182    2.5744    0.0000 H   0  0  0  0  0  0  0  0  0  0  0  0
   -0.9871    0.9946    0.0000 H   0  0  0  0  0  0  0  0  0  0  0  0
   -1.6027   -1.4148    0.0000 H   0  0  0  0  0  0  0  0  0  0  0  0
    0.1560    0.8964    0.0000 H   0  0  0  0  0  0  0  0  0  0  0  0
   -1.0595    1.8740    0.0000 H   0  0  0  0  0  0  0  0  0  0  0  0
   -1.2760    1.2029    0.0000 H   0  0  0  0  0  0  0  0  0  0  0  0
   -0.4773   -0.3496    0.0000 H   0  0  0  0  0  0  0  0  0  0  0  0
   -2.0212    1.5725    0.0000 H   0  0  0  0  0  0  0  0  0  0  0  0
   -2.5780    0.8335    0.0000 H   0  0  0  0  0  0  0  0  0  0  0  0
   -2.0985    0.0423    0.0000 H   0  0  0  0  0  0  0  0  0  0  0  0
   -2.6366   -2.4623    0.0000 H   0  0  0  0  0  0  0  0  0  0  0  0
   -1.8555   -2.2246    0.0000 H   0  0  0  0  0  0  0  0  0  0  0  0
   -3.2808   -1.0878    0.0000 H   0  0  0  0  0  0  0  0  0  0  0  0
   -4.0459   -1.7370    0.0000 H   0  0  0  0  0  0  0  0  0  0  0  0
   -3.6181   -2.6448    0.0000 H   0  0  0  0  0  0  0  0  0  0  0  0
    0.0449   -1.5782    0.0000 H   0  0  0  0  0  0  0  0  0  0  0  0
    1.9782   -1.9395    0.0000 H   0  0  0  0  0  0  0  0  0  0  0  0
    3.1294   -1.7499    0.0000 H   0  0  0  0  0  0  0  0  0  0  0  0
    2.9397   -0.5987    0.0000 H   0  0  0  0  0  0  0  0  0  0  0  0
    3.0854    0.1391    0.0000 H   0  0  0  0  0  0  0  0  0  0  0  0
    2.5709    0.6880    0.0000 H   0  0  0  0  0  0  0  0  0  0  0  0
    1.7963    1.4402    0.0000 H   0  0  0  0  0  0  0  0  0  0  0  0
    1.4004   -0.1018    0.0000 H   0  0  0  0  0  0  0  0  0  0  0  0
    0.7848    2.3451    0.0000 H   0  0  0  0  0  0  0  0  0  0  0  0
    2.2965    2.2222    0.0000 H   0  0  0  0  0  0  0  0  0  0  0  0
  1 24  1  0  0  0  0
  1 25  1  0  0  0  0
  1  2  1  0  0  0  0
 18  1  1  0  0  0  0
  3  2  1  0  0  0  0
  2 29  1  0  0  0  0
  2 30  1  0  0  0  0
  3  4  1  0  0  0  0
 21  3  1  0  0  0  0
  3 31  1  1  0  0  0
  4 26  1  1  0  0  0
  4  5  1  6  0  0  0
  4  6  1  0  0  0  0
  5 32  1  0  0  0  0
  5 33  1  0  0  0  0
  5 34  1  0  0  0  0
  6 27  1  1  0  0  0
  6  7  1  6  0  0  0
  6 10  1  0  0  0  0
  7  8  1  0  0  0  0
  8  9  1  0  0  0  0
  8 35  1  0  0  0  0
  8 36  1  0  0  0  0
  9 37  1  0  0  0  0
  9 38  1  0  0  0  0
  9 39  1  0  0  0  0
 11 10  1  0  0  0  0
 11 12  1  0  0  0  0
 21 11  1  0  0  0  0
 11 40  1  6  0  0  0
 13 12  1  0  0  0  0
 13 14  1  6  0  0  0
 13 15  1  0  0  0  0
 13 23  1  0  0  0  0
 14 41  1  0  0  0  0
 14 42  1  0  0  0  0
 14 43  1  0  0  0  0
 15 16  1  0  0  0  0
 15 44  1  0  0  0  0
 15 45  1  0  0  0  0
 17 16  1  0  0  0  0
 16 46  1  0  0  0  0
 16 47  1  0  0  0  0
 17 28  1  1  0  0  0
 17 18  1  0  0  0  0
 21 17  1  0  0  0  0
 18 19  1  6  0  0  0
 18 48  1  1  0  0  0
 19 20  2  0  0  0  0
 19 49  1  0  0  0  0
 21 22  1  1  0  0  0
 22 23  1  0  0  0  0
M  END
