
  Mrv171c004271813302D          

 60 62  0  0  0  0            999 V2000
   -2.9314   -3.8600    0.0000 C   0  0  0  0  0  0  0  0  0  0  0  0
   -2.2457   -3.4013    0.0000 C   0  0  0  0  0  0  0  0  0  0  0  0
   -2.3000   -2.5781    0.0000 O   0  0  0  0  0  0  0  0  0  0  0  0
   -1.6142   -2.1195    0.0000 P   0  0  0  0  0  0  0  0  0  0  0  0
   -1.1556   -2.8052    0.0000 S   0  0  0  0  0  0  0  0  0  0  0  0
   -2.0728   -1.4337    0.0000 O   0  0  0  0  0  0  0  0  0  0  0  0
   -1.7083   -0.6936    0.0000 C   0  0  0  0  0  0  0  0  0  0  0  0
   -2.1669   -0.0079    0.0000 C   0  0  0  0  0  0  0  0  0  0  0  0
   -0.9284   -1.6608    0.0000 O   0  0  0  0  0  0  0  0  0  0  0  0
   -0.9827   -0.8376    0.0000 C   0  0  0  0  0  0  0  0  0  0  0  0
   -0.2970   -0.3790    0.0000 C   0  0  0  0  0  0  0  0  0  0  0  0
   -0.3513    0.4442    0.0000 C   0  0  2  0  0  0  0  0  0  0  0  0
   -1.1795    0.6355    0.0000 C   0  0  0  0  0  0  0  0  0  0  0  0
   -1.3112    1.4705    0.0000 C   0  0  0  0  0  0  0  0  0  0  0  0
   -0.5823    1.9092    0.0000 C   0  0  0  0  0  0  0  0  0  0  0  0
    0.2351    1.6322    0.0000 C   0  0  2  0  0  0  0  0  0  0  0  0
    0.7991    2.3360    0.0000 C   0  0  0  0  0  0  0  0  0  0  0  0
    1.6906    2.5156    0.0000 C   0  0  0  0  0  0  0  0  0  0  0  0
    2.2259    1.7666    0.0000 C   0  0  1  0  0  0  0  0  0  0  0  0
    3.0268    1.9644    0.0000 C   0  0  0  0  0  0  0  0  0  0  0  0
    1.4505    1.8644    0.0000 O   0  0  0  0  0  0  0  0  0  0  0  0
    1.1427    1.1479    0.0000 O   0  0  0  0  0  0  0  0  0  0  0  0
    0.4559    0.7469    0.0000 C   0  0  1  0  0  0  0  0  0  0  0  0
    1.3214    0.4424    0.0000 C   0  0  1  0  0  0  0  0  0  0  0  0
    1.3884   -0.3799    0.0000 O   0  0  0  0  0  0  0  0  0  0  0  0
    2.1340   -0.7330    0.0000 C   0  0  0  0  0  0  0  0  0  0  0  0
    2.1029    0.8703    0.0000 O   0  0  0  0  0  0  0  0  0  0  0  0
   -0.4056    1.2674    0.0000 H   0  0  0  0  0  0  0  0  0  0  0  0
    1.0410    1.4557    0.0000 H   0  0  0  0  0  0  0  0  0  0  0  0
    2.0476    0.0510    0.0000 H   0  0  0  0  0  0  0  0  0  0  0  0
   -3.3901   -3.1742    0.0000 H   0  0  0  0  0  0  0  0  0  0  0  0
   -3.6172   -4.3186    0.0000 H   0  0  0  0  0  0  0  0  0  0  0  0
   -2.4728   -4.5457    0.0000 H   0  0  0  0  0  0  0  0  0  0  0  0
   -1.7479   -4.0593    0.0000 H   0  0  0  0  0  0  0  0  0  0  0  0
   -1.4207   -3.3950    0.0000 H   0  0  0  0  0  0  0  0  0  0  0  0
   -1.2502   -0.0075    0.0000 H   0  0  0  0  0  0  0  0  0  0  0  0
   -1.3431   -1.4334    0.0000 H   0  0  0  0  0  0  0  0  0  0  0  0
   -1.9668    0.7925    0.0000 H   0  0  0  0  0  0  0  0  0  0  0  0
   -2.8947    0.3807    0.0000 H   0  0  0  0  0  0  0  0  0  0  0  0
   -2.7207   -0.6194    0.0000 H   0  0  0  0  0  0  0  0  0  0  0  0
   -0.4120   -1.4333    0.0000 H   0  0  0  0  0  0  0  0  0  0  0  0
   -0.1626   -0.9271    0.0000 H   0  0  0  0  0  0  0  0  0  0  0  0
    0.5184   -0.2531    0.0000 H   0  0  0  0  0  0  0  0  0  0  0  0
   -1.0371   -0.0144    0.0000 H   0  0  0  0  0  0  0  0  0  0  0  0
   -0.5759    1.1979    0.0000 H   0  0  0  0  0  0  0  0  0  0  0  0
   -1.8450    0.1480    0.0000 H   0  0  0  0  0  0  0  0  0  0  0  0
   -1.5502    2.2601    0.0000 H   0  0  0  0  0  0  0  0  0  0  0  0
   -2.0268    1.8810    0.0000 H   0  0  0  0  0  0  0  0  0  0  0  0
   -0.3087    2.6875    0.0000 H   0  0  0  0  0  0  0  0  0  0  0  0
   -1.0157    2.6112    0.0000 H   0  0  0  0  0  0  0  0  0  0  0  0
    0.6999    3.1550    0.0000 H   0  0  0  0  0  0  0  0  0  0  0  0
    0.1170    2.8000    0.0000 H   0  0  0  0  0  0  0  0  0  0  0  0
    2.3117    3.0585    0.0000 H   0  0  0  0  0  0  0  0  0  0  0  0
    1.6074    3.3364    0.0000 H   0  0  0  0  0  0  0  0  0  0  0  0
    3.2246    1.1634    0.0000 H   0  0  0  0  0  0  0  0  0  0  0  0
    3.8278    2.1622    0.0000 H   0  0  0  0  0  0  0  0  0  0  0  0
    2.8290    2.7653    0.0000 H   0  0  0  0  0  0  0  0  0  0  0  0
    1.6045   -1.3656    0.0000 H   0  0  0  0  0  0  0  0  0  0  0  0
    2.6128   -1.4048    0.0000 H   0  0  0  0  0  0  0  0  0  0  0  0
    2.9048   -0.4389    0.0000 H   0  0  0  0  0  0  0  0  0  0  0  0
  1  2  1  0  0  0  0
  1 31  1  0  0  0  0
  1 32  1  0  0  0  0
  1 33  1  0  0  0  0
  2  3  1  0  0  0  0
  2 34  1  0  0  0  0
  2 35  1  0  0  0  0
  3  4  1  0  0  0  0
  4  5  2  0  0  0  0
  4  6  1  0  0  0  0
  4  9  1  0  0  0  0
  6  7  1  0  0  0  0
  7  8  1  0  0  0  0
  7 36  1  0  0  0  0
  7 37  1  0  0  0  0
  8 38  1  0  0  0  0
  8 39  1  0  0  0  0
  8 40  1  0  0  0  0
  9 10  1  0  0  0  0
 10 11  1  0  0  0  0
 10 41  1  0  0  0  0
 10 42  1  0  0  0  0
 12 11  1  0  0  0  0
 11 43  1  0  0  0  0
 11 44  1  0  0  0  0
 12 28  1  1  0  0  0
 12 13  1  6  0  0  0
 23 12  1  0  0  0  0
 13 14  1  0  0  0  0
 13 45  1  0  0  0  0
 13 46  1  0  0  0  0
 14 15  1  0  0  0  0
 14 47  1  0  0  0  0
 14 48  1  0  0  0  0
 16 15  1  0  0  0  0
 15 49  1  0  0  0  0
 15 50  1  0  0  0  0
 16 29  1  1  0  0  0
 16 17  1  0  0  0  0
 23 16  1  0  0  0  0
 17 18  1  0  0  0  0
 17 51  1  0  0  0  0
 17 52  1  0  0  0  0
 19 18  1  0  0  0  0
 18 53  1  0  0  0  0
 18 54  1  0  0  0  0
 19 20  1  1  0  0  0
 19 21  1  0  0  0  0
 19 27  1  0  0  0  0
 20 55  1  0  0  0  0
 20 56  1  0  0  0  0
 20 57  1  0  0  0  0
 21 22  1  0  0  0  0
 23 22  1  1  0  0  0
 23 24  1  0  0  0  0
 24 30  1  1  0  0  0
 24 25  1  0  0  0  0
 24 27  1  0  0  0  0
 25 26  1  0  0  0  0
 26 58  1  0  0  0  0
 26 59  1  0  0  0  0
 26 60  1  0  0  0  0
M  END
