
  Mrv171c004271813302D          

 43 46  0  0  0  0            999 V2000
   -1.5992    0.2004    0.0000 C   0  0  0  0  0  0  0  0  0  0  0  0
   -1.9110   -0.5900    0.0000 C   0  0  0  0  0  0  0  0  0  0  0  0
   -2.6959   -0.8442    0.0000 O   0  0  0  0  0  0  0  0  0  0  0  0
   -1.2013   -1.0436    0.0000 N   0  0  0  0  0  0  0  0  0  0  0  0
   -1.2937   -1.8634    0.0000 C   0  0  0  0  0  0  0  0  0  0  0  0
   -0.3730   -0.7467    0.0000 C   0  0  2  0  0  0  0  0  0  0  0  0
    0.5622   -0.4966    0.0000 O   0  0  0  0  0  0  0  0  0  0  0  0
    1.3751   -0.7818    0.0000 C   0  0  1  0  0  0  0  0  0  0  0  0
    2.0455   -1.2626    0.0000 C   0  0  0  0  0  0  0  0  0  0  0  0
    1.8790   -0.0820    0.0000 C   0  0  0  0  0  0  0  0  0  0  0  0
    1.3948    0.6218    0.0000 C   0  0  0  0  0  0  0  0  0  0  0  0
    0.5365    0.6786    0.0000 C   0  0  1  0  0  0  0  0  0  0  0  0
    0.4128    1.5277    0.0000 C   0  0  1  0  0  0  0  0  0  0  0  0
    1.0912    1.9972    0.0000 C   0  0  0  0  0  0  0  0  0  0  0  0
   -0.3209    1.9330    0.0000 C   0  0  0  0  0  0  0  0  0  0  0  0
   -0.8713    1.3160    0.0000 C   0  0  0  0  0  0  0  0  0  0  0  0
   -0.7833    0.4749    0.0000 C   0  0  2  0  0  0  0  0  0  0  0  0
   -0.0433   -0.0161    0.0000 C   0  0  1  0  0  0  0  0  0  0  0  0
    0.2054   -0.9470    0.0000 O   0  0  0  0  0  0  0  0  0  0  0  0
    0.8753   -1.4815    0.0000 O   0  0  0  0  0  0  0  0  0  0  0  0
   -1.8541    0.9850    0.0000 H   0  0  0  0  0  0  0  0  0  0  0  0
   -2.3698    0.4950    0.0000 H   0  0  0  0  0  0  0  0  0  0  0  0
   -0.2574    0.9029    0.0000 H   0  0  0  0  0  0  0  0  0  0  0  0
   -2.1135   -1.7710    0.0000 H   0  0  0  0  0  0  0  0  0  0  0  0
   -1.3861   -2.6832    0.0000 H   0  0  0  0  0  0  0  0  0  0  0  0
   -0.4739   -1.9558    0.0000 H   0  0  0  0  0  0  0  0  0  0  0  0
   -0.3686   -1.5717    0.0000 H   0  0  0  0  0  0  0  0  0  0  0  0
    1.5647   -1.9330    0.0000 H   0  0  0  0  0  0  0  0  0  0  0  0
    2.7160   -1.7433    0.0000 H   0  0  0  0  0  0  0  0  0  0  0  0
    2.5263   -0.5921    0.0000 H   0  0  0  0  0  0  0  0  0  0  0  0
    2.6719    0.1456    0.0000 H   0  0  0  0  0  0  0  0  0  0  0  0
    2.1575    0.6946    0.0000 H   0  0  0  0  0  0  0  0  0  0  0  0
    1.3828    1.4467    0.0000 H   0  0  0  0  0  0  0  0  0  0  0  0
    0.9870   -0.0953    0.0000 H   0  0  0  0  0  0  0  0  0  0  0  0
    1.1693    1.1986    0.0000 H   0  0  0  0  0  0  0  0  0  0  0  0
    1.9099    2.0992    0.0000 H   0  0  0  0  0  0  0  0  0  0  0  0
    1.2866    2.7987    0.0000 H   0  0  0  0  0  0  0  0  0  0  0  0
    0.4114    2.4646    0.0000 H   0  0  0  0  0  0  0  0  0  0  0  0
   -0.6132    2.7045    0.0000 H   0  0  0  0  0  0  0  0  0  0  0  0
   -1.0591    2.3013    0.0000 H   0  0  0  0  0  0  0  0  0  0  0  0
   -1.4729    1.8806    0.0000 H   0  0  0  0  0  0  0  0  0  0  0  0
   -1.6894    1.2095    0.0000 H   0  0  0  0  0  0  0  0  0  0  0  0
   -0.8908   -0.3431    0.0000 H   0  0  0  0  0  0  0  0  0  0  0  0
  1 21  1  0  0  0  0
  1 22  1  0  0  0  0
  1  2  1  0  0  0  0
 17  1  1  0  0  0  0
  2  3  2  0  0  0  0
  2  4  1  0  0  0  0
  4  5  1  0  0  0  0
  6  4  1  0  0  0  0
  5 24  1  0  0  0  0
  5 25  1  0  0  0  0
  5 26  1  0  0  0  0
  6  7  1  0  0  0  0
 18  6  1  0  0  0  0
  6 27  1  6  0  0  0
  8  7  1  0  0  0  0
  8  9  1  6  0  0  0
  8 10  1  0  0  0  0
  8 20  1  0  0  0  0
  9 28  1  0  0  0  0
  9 29  1  0  0  0  0
  9 30  1  0  0  0  0
 10 11  1  0  0  0  0
 10 31  1  0  0  0  0
 10 32  1  0  0  0  0
 12 11  1  0  0  0  0
 11 33  1  0  0  0  0
 11 34  1  0  0  0  0
 12 23  1  1  0  0  0
 12 13  1  0  0  0  0
 18 12  1  0  0  0  0
 13 14  1  6  0  0  0
 13 15  1  0  0  0  0
 13 35  1  1  0  0  0
 14 36  1  0  0  0  0
 14 37  1  0  0  0  0
 14 38  1  0  0  0  0
 15 16  1  0  0  0  0
 15 39  1  0  0  0  0
 15 40  1  0  0  0  0
 17 16  1  0  0  0  0
 16 41  1  0  0  0  0
 16 42  1  0  0  0  0
 18 17  1  0  0  0  0
 17 43  1  1  0  0  0
 18 19  1  1  0  0  0
 19 20  1  0  0  0  0
M  END
