
  Mrv171c004271813302D          

 58 61  0  0  0  0            999 V2000
   -1.0863   -0.3271    0.0000 C   0  0  0  0  0  0  0  0  0  0  0  0
   -1.7671    0.1389    0.0000 O   0  0  0  0  0  0  0  0  0  0  0  0
   -1.7039    0.9615    0.0000 C   0  0  1  0  0  0  0  0  0  0  0  0
   -2.4305    1.4908    0.0000 O   0  0  0  0  0  0  0  0  0  0  0  0
   -2.5476    2.3819    0.0000 C   0  0  1  0  0  0  0  0  0  0  0  0
   -3.3478    2.5825    0.0000 C   0  0  0  0  0  0  0  0  0  0  0  0
   -2.0267    3.1086    0.0000 C   0  0  0  0  0  0  0  0  0  0  0  0
   -1.1430    3.0144    0.0000 C   0  0  0  0  0  0  0  0  0  0  0  0
   -0.6522    2.2622    0.0000 C   0  0  1  0  0  0  0  0  0  0  0  0
    0.1314    2.6220    0.0000 C   0  0  0  0  0  0  0  0  0  0  0  0
    0.7045    2.0117    0.0000 C   0  0  0  0  0  0  0  0  0  0  0  0
    0.5436    1.1868    0.0000 C   0  0  0  0  0  0  0  0  0  0  0  0
   -0.2218    0.8454    0.0000 C   0  0  1  0  0  0  0  0  0  0  0  0
   -0.3265    0.0271    0.0000 C   0  0  0  0  0  0  0  0  0  0  0  0
    0.3299   -0.4727    0.0000 C   0  0  0  0  0  0  0  0  0  0  0  0
    0.2252   -1.2911    0.0000 O   0  0  0  0  0  0  0  0  0  0  0  0
    0.8816   -1.7909    0.0000 C   0  0  0  0  0  0  0  0  0  0  0  0
    1.6426   -1.4724    0.0000 O   0  0  0  0  0  0  0  0  0  0  0  0
    0.7769   -2.6092    0.0000 C   0  0  0  0  0  0  0  0  0  0  0  0
    1.4333   -3.1090    0.0000 C   0  0  0  0  0  0  0  0  0  0  0  0
    1.3286   -3.9274    0.0000 C   0  0  0  0  0  0  0  0  0  0  0  0
    0.5676   -4.2459    0.0000 C   0  0  0  0  0  0  0  0  0  0  0  0
    0.4629   -5.0642    0.0000 C   0  0  0  0  0  0  0  0  0  0  0  0
    1.1193   -5.5640    0.0000 O   0  0  0  0  0  0  0  0  0  0  0  0
   -0.2981   -5.3827    0.0000 O   0  0  0  0  0  0  0  0  0  0  0  0
   -0.0888   -3.7461    0.0000 C   0  0  0  0  0  0  0  0  0  0  0  0
    0.0159   -2.9277    0.0000 C   0  0  0  0  0  0  0  0  0  0  0  0
   -0.8917    1.3805    0.0000 C   0  0  1  0  0  0  0  0  0  0  0  0
   -1.6229    1.6636    0.0000 O   0  0  0  0  0  0  0  0  0  0  0  0
   -1.7537    2.4303    0.0000 O   0  0  0  0  0  0  0  0  0  0  0  0
   -1.0164    0.5055    0.0000 H   0  0  0  0  0  0  0  0  0  0  0  0
   -1.4671    2.1337    0.0000 H   0  0  0  0  0  0  0  0  0  0  0  0
    0.4403    0.3532    0.0000 H   0  0  0  0  0  0  0  0  0  0  0  0
   -1.8312   -0.6816    0.0000 H   0  0  0  0  0  0  0  0  0  0  0  0
   -1.1539   -1.1493    0.0000 H   0  0  0  0  0  0  0  0  0  0  0  0
   -0.4093   -0.7986    0.0000 H   0  0  0  0  0  0  0  0  0  0  0  0
   -3.1472    3.3828    0.0000 H   0  0  0  0  0  0  0  0  0  0  0  0
   -4.1480    2.7832    0.0000 H   0  0  0  0  0  0  0  0  0  0  0  0
   -3.5484    1.7823    0.0000 H   0  0  0  0  0  0  0  0  0  0  0  0
   -1.9897    3.9327    0.0000 H   0  0  0  0  0  0  0  0  0  0  0  0
   -2.6666    3.6293    0.0000 H   0  0  0  0  0  0  0  0  0  0  0  0
   -0.4502    3.4622    0.0000 H   0  0  0  0  0  0  0  0  0  0  0  0
   -1.0592    3.8351    0.0000 H   0  0  0  0  0  0  0  0  0  0  0  0
    0.6507    3.2631    0.0000 H   0  0  0  0  0  0  0  0  0  0  0  0
   -0.1080    3.4115    0.0000 H   0  0  0  0  0  0  0  0  0  0  0  0
    1.5171    1.8692    0.0000 H   0  0  0  0  0  0  0  0  0  0  0  0
    1.3165    2.5649    0.0000 H   0  0  0  0  0  0  0  0  0  0  0  0
    0.8975    0.4416    0.0000 H   0  0  0  0  0  0  0  0  0  0  0  0
    1.3494    1.0098    0.0000 H   0  0  0  0  0  0  0  0  0  0  0  0
   -0.6618    0.7809    0.0000 H   0  0  0  0  0  0  0  0  0  0  0  0
   -1.1485    0.0972    0.0000 H   0  0  0  0  0  0  0  0  0  0  0  0
    0.9853   -0.9738    0.0000 H   0  0  0  0  0  0  0  0  0  0  0  0
    1.0921   -0.1571    0.0000 H   0  0  0  0  0  0  0  0  0  0  0  0
    2.1943   -2.7905    0.0000 H   0  0  0  0  0  0  0  0  0  0  0  0
    1.9850   -4.4272    0.0000 H   0  0  0  0  0  0  0  0  0  0  0  0
   -0.9545   -4.8829    0.0000 H   0  0  0  0  0  0  0  0  0  0  0  0
   -0.8498   -4.0646    0.0000 H   0  0  0  0  0  0  0  0  0  0  0  0
   -0.6405   -2.4279    0.0000 H   0  0  0  0  0  0  0  0  0  0  0  0
  1  2  1  0  0  0  0
  1 34  1  0  0  0  0
  1 35  1  0  0  0  0
  1 36  1  0  0  0  0
  3  2  1  0  0  0  0
  3 31  1  6  0  0  0
  3  4  1  0  0  0  0
 28  3  1  0  0  0  0
  5  4  1  0  0  0  0
  5  6  1  6  0  0  0
  5  7  1  0  0  0  0
  5 30  1  0  0  0  0
  6 37  1  0  0  0  0
  6 38  1  0  0  0  0
  6 39  1  0  0  0  0
  7  8  1  0  0  0  0
  7 40  1  0  0  0  0
  7 41  1  0  0  0  0
  9  8  1  0  0  0  0
  8 42  1  0  0  0  0
  8 43  1  0  0  0  0
  9 32  1  6  0  0  0
  9 10  1  0  0  0  0
 28  9  1  0  0  0  0
 10 11  1  0  0  0  0
 10 44  1  0  0  0  0
 10 45  1  0  0  0  0
 11 12  1  0  0  0  0
 11 46  1  0  0  0  0
 11 47  1  0  0  0  0
 13 12  1  0  0  0  0
 12 48  1  0  0  0  0
 12 49  1  0  0  0  0
 13 33  1  6  0  0  0
 13 14  1  0  0  0  0
 28 13  1  0  0  0  0
 14 15  1  0  0  0  0
 14 50  1  0  0  0  0
 14 51  1  0  0  0  0
 15 16  1  0  0  0  0
 15 52  1  0  0  0  0
 15 53  1  0  0  0  0
 16 17  1  0  0  0  0
 17 18  2  0  0  0  0
 17 19  1  0  0  0  0
 19 20  1  0  0  0  0
 19 27  2  0  0  0  0
 20 21  2  0  0  0  0
 20 54  1  0  0  0  0
 21 22  1  0  0  0  0
 21 55  1  0  0  0  0
 22 23  1  0  0  0  0
 22 26  2  0  0  0  0
 23 24  2  0  0  0  0
 23 25  1  0  0  0  0
 25 56  1  0  0  0  0
 26 27  1  0  0  0  0
 26 57  1  0  0  0  0
 27 58  1  0  0  0  0
 28 29  1  6  0  0  0
 29 30  1  0  0  0  0
M  END
