
  Mrv171c004271813302D          

 55 58  0  0  0  0            999 V2000
   -0.8057   -0.5754    0.0000 C   0  0  0  0  0  0  0  0  0  0  0  0
   -1.4864   -0.1094    0.0000 O   0  0  0  0  0  0  0  0  0  0  0  0
   -1.4233    0.7131    0.0000 C   0  0  1  0  0  0  0  0  0  0  0  0
   -2.1499    1.2424    0.0000 O   0  0  0  0  0  0  0  0  0  0  0  0
   -2.2669    2.1335    0.0000 C   0  0  1  0  0  0  0  0  0  0  0  0
   -3.0672    2.3342    0.0000 C   0  0  0  0  0  0  0  0  0  0  0  0
   -1.7461    2.8602    0.0000 C   0  0  0  0  0  0  0  0  0  0  0  0
   -0.8624    2.7660    0.0000 C   0  0  0  0  0  0  0  0  0  0  0  0
   -0.3715    2.0138    0.0000 C   0  0  1  0  0  0  0  0  0  0  0  0
    0.4120    2.3737    0.0000 C   0  0  0  0  0  0  0  0  0  0  0  0
    0.9851    1.7633    0.0000 C   0  0  0  0  0  0  0  0  0  0  0  0
    0.8243    0.9385    0.0000 C   0  0  0  0  0  0  0  0  0  0  0  0
    0.0588    0.5970    0.0000 C   0  0  1  0  0  0  0  0  0  0  0  0
   -0.0458   -0.2213    0.0000 C   0  0  0  0  0  0  0  0  0  0  0  0
    0.6105   -0.7211    0.0000 C   0  0  0  0  0  0  0  0  0  0  0  0
    0.5059   -1.5394    0.0000 O   0  0  0  0  0  0  0  0  0  0  0  0
    1.1622   -2.0392    0.0000 C   0  0  0  0  0  0  0  0  0  0  0  0
    1.0576   -2.8576    0.0000 C   0  0  0  0  0  0  0  0  0  0  0  0
    1.7139   -3.3574    0.0000 C   0  0  0  0  0  0  0  0  0  0  0  0
    1.6093   -4.1757    0.0000 C   0  0  0  0  0  0  0  0  0  0  0  0
    0.8482   -4.4943    0.0000 C   0  0  0  0  0  0  0  0  0  0  0  0
    0.1919   -3.9944    0.0000 C   0  0  0  0  0  0  0  0  0  0  0  0
    0.2965   -3.1761    0.0000 N   0  0  0  0  0  0  0  0  0  0  0  0
   -0.6111    1.1321    0.0000 C   0  0  1  0  0  0  0  0  0  0  0  0
   -1.3422    1.4152    0.0000 O   0  0  0  0  0  0  0  0  0  0  0  0
   -1.4730    2.1819    0.0000 O   0  0  0  0  0  0  0  0  0  0  0  0
   -0.7357    0.2572    0.0000 H   0  0  0  0  0  0  0  0  0  0  0  0
   -1.1864    1.8853    0.0000 H   0  0  0  0  0  0  0  0  0  0  0  0
    0.7209    0.1049    0.0000 H   0  0  0  0  0  0  0  0  0  0  0  0
   -1.5506   -0.9300    0.0000 H   0  0  0  0  0  0  0  0  0  0  0  0
   -0.8733   -1.3977    0.0000 H   0  0  0  0  0  0  0  0  0  0  0  0
   -0.1287   -1.0469    0.0000 H   0  0  0  0  0  0  0  0  0  0  0  0
   -2.8665    3.1344    0.0000 H   0  0  0  0  0  0  0  0  0  0  0  0
   -3.8674    2.5348    0.0000 H   0  0  0  0  0  0  0  0  0  0  0  0
   -3.2678    1.5339    0.0000 H   0  0  0  0  0  0  0  0  0  0  0  0
   -1.7090    3.6843    0.0000 H   0  0  0  0  0  0  0  0  0  0  0  0
   -2.3859    3.3810    0.0000 H   0  0  0  0  0  0  0  0  0  0  0  0
   -0.1695    3.2139    0.0000 H   0  0  0  0  0  0  0  0  0  0  0  0
   -0.7785    3.5867    0.0000 H   0  0  0  0  0  0  0  0  0  0  0  0
    0.9314    3.0147    0.0000 H   0  0  0  0  0  0  0  0  0  0  0  0
    0.1726    3.1631    0.0000 H   0  0  0  0  0  0  0  0  0  0  0  0
    1.7977    1.6208    0.0000 H   0  0  0  0  0  0  0  0  0  0  0  0
    1.5972    2.3165    0.0000 H   0  0  0  0  0  0  0  0  0  0  0  0
    1.1782    0.1932    0.0000 H   0  0  0  0  0  0  0  0  0  0  0  0
    1.6301    0.7614    0.0000 H   0  0  0  0  0  0  0  0  0  0  0  0
   -0.3812    0.5325    0.0000 H   0  0  0  0  0  0  0  0  0  0  0  0
   -0.8679   -0.1512    0.0000 H   0  0  0  0  0  0  0  0  0  0  0  0
    1.2659   -1.2222    0.0000 H   0  0  0  0  0  0  0  0  0  0  0  0
    1.3728   -0.4055    0.0000 H   0  0  0  0  0  0  0  0  0  0  0  0
    1.8955   -2.4172    0.0000 H   0  0  0  0  0  0  0  0  0  0  0  0
    1.9669   -1.8573    0.0000 H   0  0  0  0  0  0  0  0  0  0  0  0
    2.5285   -3.4880    0.0000 H   0  0  0  0  0  0  0  0  0  0  0  0
    2.2656   -4.6755    0.0000 H   0  0  0  0  0  0  0  0  0  0  0  0
    0.7436   -5.3126    0.0000 H   0  0  0  0  0  0  0  0  0  0  0  0
   -0.5692   -4.3130    0.0000 H   0  0  0  0  0  0  0  0  0  0  0  0
  1  2  1  0  0  0  0
  1 30  1  0  0  0  0
  1 31  1  0  0  0  0
  1 32  1  0  0  0  0
  3  2  1  0  0  0  0
  3 27  1  6  0  0  0
  3  4  1  0  0  0  0
 24  3  1  0  0  0  0
  5  4  1  0  0  0  0
  5  6  1  6  0  0  0
  5  7  1  0  0  0  0
  5 26  1  0  0  0  0
  6 33  1  0  0  0  0
  6 34  1  0  0  0  0
  6 35  1  0  0  0  0
  7  8  1  0  0  0  0
  7 36  1  0  0  0  0
  7 37  1  0  0  0  0
  9  8  1  0  0  0  0
  8 38  1  0  0  0  0
  8 39  1  0  0  0  0
  9 28  1  6  0  0  0
  9 10  1  0  0  0  0
 24  9  1  0  0  0  0
 10 11  1  0  0  0  0
 10 40  1  0  0  0  0
 10 41  1  0  0  0  0
 11 12  1  0  0  0  0
 11 42  1  0  0  0  0
 11 43  1  0  0  0  0
 13 12  1  0  0  0  0
 12 44  1  0  0  0  0
 12 45  1  0  0  0  0
 13 29  1  6  0  0  0
 13 14  1  0  0  0  0
 24 13  1  0  0  0  0
 14 15  1  0  0  0  0
 14 46  1  0  0  0  0
 14 47  1  0  0  0  0
 15 16  1  0  0  0  0
 15 48  1  0  0  0  0
 15 49  1  0  0  0  0
 16 17  1  0  0  0  0
 17 18  1  0  0  0  0
 17 50  1  0  0  0  0
 17 51  1  0  0  0  0
 18 19  1  0  0  0  0
 18 23  2  0  0  0  0
 19 20  2  0  0  0  0
 19 52  1  0  0  0  0
 20 21  1  0  0  0  0
 20 53  1  0  0  0  0
 21 22  2  0  0  0  0
 21 54  1  0  0  0  0
 22 23  1  0  0  0  0
 22 55  1  0  0  0  0
 24 25  1  6  0  0  0
 25 26  1  0  0  0  0
M  END
