
  Mrv171c004271813302D          

 46 45  0  0  0  0            999 V2000
   -2.0585   -3.6296    0.0000 C   0  0  0  0  0  0  0  0  0  0  0  0
   -1.3441   -3.2171    0.0000 C   0  0  0  0  0  0  0  0  0  0  0  0
   -1.3441   -2.3921    0.0000 C   0  0  0  0  0  0  0  0  0  0  0  0
   -0.6296   -1.9796    0.0000 C   0  0  0  0  0  0  0  0  0  0  0  0
    0.0849   -2.3921    0.0000 O   0  0  0  0  0  0  0  0  0  0  0  0
   -0.6296   -1.1546    0.0000 O   0  0  0  0  0  0  0  0  0  0  0  0
    0.0849   -0.7421    0.0000 C   0  0  0  0  0  0  0  0  0  0  0  0
    0.0849    0.0829    0.0000 C   0  0  0  0  0  0  0  0  0  0  0  0
    0.9099    0.0829    0.0000 C   0  0  0  0  0  0  0  0  0  0  0  0
    1.3224    0.7973    0.0000 C   0  0  0  0  0  0  0  0  0  0  0  0
   -0.7401    0.0829    0.0000 C   0  0  0  0  0  0  0  0  0  0  0  0
   -1.1526    0.7973    0.0000 C   0  0  0  0  0  0  0  0  0  0  0  0
    0.0849    0.9079    0.0000 O   0  0  0  0  0  0  0  0  0  0  0  0
    0.7993    1.3204    0.0000 O   0  0  0  0  0  0  0  0  0  0  0  0
    0.7993    2.1454    0.0000 C   0  0  0  0  0  0  0  0  0  0  0  0
    0.7993    2.9704    0.0000 C   0  0  0  0  0  0  0  0  0  0  0  0
    1.6243    2.1454    0.0000 C   0  0  0  0  0  0  0  0  0  0  0  0
   -0.0257    2.1454    0.0000 C   0  0  0  0  0  0  0  0  0  0  0  0
   -2.4710   -2.9152    0.0000 H   0  0  0  0  0  0  0  0  0  0  0  0
   -2.7730   -4.0421    0.0000 H   0  0  0  0  0  0  0  0  0  0  0  0
   -1.6460   -4.3441    0.0000 H   0  0  0  0  0  0  0  0  0  0  0  0
   -0.8907   -3.9064    0.0000 H   0  0  0  0  0  0  0  0  0  0  0  0
   -0.5205   -3.2651    0.0000 H   0  0  0  0  0  0  0  0  0  0  0  0
   -1.7974   -1.7029    0.0000 H   0  0  0  0  0  0  0  0  0  0  0  0
   -2.1677   -2.3442    0.0000 H   0  0  0  0  0  0  0  0  0  0  0  0
    0.5382   -1.4314    0.0000 H   0  0  0  0  0  0  0  0  0  0  0  0
    0.9085   -0.7901    0.0000 H   0  0  0  0  0  0  0  0  0  0  0  0
    1.7066   -0.1313    0.0000 H   0  0  0  0  0  0  0  0  0  0  0  0
    0.4974    0.7973    0.0000 H   0  0  0  0  0  0  0  0  0  0  0  0
    1.7807    0.1114    0.0000 H   0  0  0  0  0  0  0  0  0  0  0  0
    2.1403    0.9050    0.0000 H   0  0  0  0  0  0  0  0  0  0  0  0
    1.5876    1.5786    0.0000 H   0  0  0  0  0  0  0  0  0  0  0  0
   -1.4294   -0.3705    0.0000 H   0  0  0  0  0  0  0  0  0  0  0  0
   -0.7881   -0.7407    0.0000 H   0  0  0  0  0  0  0  0  0  0  0  0
   -0.4382    1.2098    0.0000 H   0  0  0  0  0  0  0  0  0  0  0  0
   -1.5651    1.5118    0.0000 H   0  0  0  0  0  0  0  0  0  0  0  0
   -1.8671    0.3848    0.0000 H   0  0  0  0  0  0  0  0  0  0  0  0
    1.6243    2.9704    0.0000 H   0  0  0  0  0  0  0  0  0  0  0  0
    0.7993    3.7954    0.0000 H   0  0  0  0  0  0  0  0  0  0  0  0
   -0.0257    2.9704    0.0000 H   0  0  0  0  0  0  0  0  0  0  0  0
    2.1787    1.5344    0.0000 H   0  0  0  0  0  0  0  0  0  0  0  0
    2.4489    2.1186    0.0000 H   0  0  0  0  0  0  0  0  0  0  0  0
    2.2171    2.7192    0.0000 H   0  0  0  0  0  0  0  0  0  0  0  0
   -0.7879    2.4611    0.0000 H   0  0  0  0  0  0  0  0  0  0  0  0
   -0.6090    1.5620    0.0000 H   0  0  0  0  0  0  0  0  0  0  0  0
    0.2901    1.3832    0.0000 H   0  0  0  0  0  0  0  0  0  0  0  0
  1  2  1  0  0  0  0
  1 19  1  0  0  0  0
  1 20  1  0  0  0  0
  1 21  1  0  0  0  0
  2  3  1  0  0  0  0
  2 22  1  0  0  0  0
  2 23  1  0  0  0  0
  3  4  1  0  0  0  0
  3 24  1  0  0  0  0
  3 25  1  0  0  0  0
  4  5  2  0  0  0  0
  4  6  1  0  0  0  0
  6  7  1  0  0  0  0
  7  8  1  0  0  0  0
  7 26  1  0  0  0  0
  7 27  1  0  0  0  0
  8  9  1  0  0  0  0
  8 11  1  0  0  0  0
  8 13  1  0  0  0  0
  9 10  1  0  0  0  0
  9 28  1  0  0  0  0
  9 29  1  0  0  0  0
 10 30  1  0  0  0  0
 10 31  1  0  0  0  0
 10 32  1  0  0  0  0
 11 12  1  0  0  0  0
 11 33  1  0  0  0  0
 11 34  1  0  0  0  0
 12 35  1  0  0  0  0
 12 36  1  0  0  0  0
 12 37  1  0  0  0  0
 13 14  1  0  0  0  0
 14 15  1  0  0  0  0
 15 16  1  0  0  0  0
 15 17  1  0  0  0  0
 15 18  1  0  0  0  0
 16 38  1  0  0  0  0
 16 39  1  0  0  0  0
 16 40  1  0  0  0  0
 17 41  1  0  0  0  0
 17 42  1  0  0  0  0
 17 43  1  0  0  0  0
 18 44  1  0  0  0  0
 18 45  1  0  0  0  0
 18 46  1  0  0  0  0
M  END
