
  Mrv171c004271813302D          

 55 58  0  0  0  0            999 V2000
   -0.8053   -0.5861    0.0000 C   0  0  0  0  0  0  0  0  0  0  0  0
   -1.4861   -0.1201    0.0000 O   0  0  0  0  0  0  0  0  0  0  0  0
   -1.4229    0.7024    0.0000 C   0  0  1  0  0  0  0  0  0  0  0  0
   -2.1495    1.2317    0.0000 O   0  0  0  0  0  0  0  0  0  0  0  0
   -2.2666    2.1228    0.0000 C   0  0  1  0  0  0  0  0  0  0  0  0
   -3.0668    2.3235    0.0000 C   0  0  0  0  0  0  0  0  0  0  0  0
   -1.7457    2.8495    0.0000 C   0  0  0  0  0  0  0  0  0  0  0  0
   -0.8620    2.7553    0.0000 C   0  0  0  0  0  0  0  0  0  0  0  0
   -0.3712    2.0031    0.0000 C   0  0  1  0  0  0  0  0  0  0  0  0
    0.4124    2.3630    0.0000 C   0  0  0  0  0  0  0  0  0  0  0  0
    0.9855    1.7526    0.0000 C   0  0  0  0  0  0  0  0  0  0  0  0
    0.8246    0.9278    0.0000 C   0  0  0  0  0  0  0  0  0  0  0  0
    0.0592    0.5863    0.0000 C   0  0  1  0  0  0  0  0  0  0  0  0
   -0.0455   -0.2320    0.0000 C   0  0  0  0  0  0  0  0  0  0  0  0
    0.6109   -0.7318    0.0000 C   0  0  0  0  0  0  0  0  0  0  0  0
    0.5062   -1.5501    0.0000 O   0  0  0  0  0  0  0  0  0  0  0  0
    1.1626   -2.0500    0.0000 C   0  0  0  0  0  0  0  0  0  0  0  0
    1.0579   -2.8683    0.0000 C   0  0  0  0  0  0  0  0  0  0  0  0
    1.7143   -3.3681    0.0000 C   0  0  0  0  0  0  0  0  0  0  0  0
    1.6096   -4.1864    0.0000 C   0  0  0  0  0  0  0  0  0  0  0  0
    0.8486   -4.5050    0.0000 N   0  0  0  0  0  0  0  0  0  0  0  0
    0.1922   -4.0051    0.0000 C   0  0  0  0  0  0  0  0  0  0  0  0
    0.2969   -3.1868    0.0000 C   0  0  0  0  0  0  0  0  0  0  0  0
   -0.6107    1.1214    0.0000 C   0  0  1  0  0  0  0  0  0  0  0  0
   -1.3419    1.4045    0.0000 O   0  0  0  0  0  0  0  0  0  0  0  0
   -1.4727    2.1712    0.0000 O   0  0  0  0  0  0  0  0  0  0  0  0
   -0.7354    0.2465    0.0000 H   0  0  0  0  0  0  0  0  0  0  0  0
   -1.1861    1.8746    0.0000 H   0  0  0  0  0  0  0  0  0  0  0  0
    0.7213    0.0942    0.0000 H   0  0  0  0  0  0  0  0  0  0  0  0
   -1.5502   -0.9407    0.0000 H   0  0  0  0  0  0  0  0  0  0  0  0
   -0.8729   -1.4084    0.0000 H   0  0  0  0  0  0  0  0  0  0  0  0
   -0.1283   -1.0576    0.0000 H   0  0  0  0  0  0  0  0  0  0  0  0
   -2.8662    3.1237    0.0000 H   0  0  0  0  0  0  0  0  0  0  0  0
   -3.8670    2.5241    0.0000 H   0  0  0  0  0  0  0  0  0  0  0  0
   -3.2674    1.5232    0.0000 H   0  0  0  0  0  0  0  0  0  0  0  0
   -1.7087    3.6736    0.0000 H   0  0  0  0  0  0  0  0  0  0  0  0
   -2.3856    3.3702    0.0000 H   0  0  0  0  0  0  0  0  0  0  0  0
   -0.1692    3.2032    0.0000 H   0  0  0  0  0  0  0  0  0  0  0  0
   -0.7781    3.5760    0.0000 H   0  0  0  0  0  0  0  0  0  0  0  0
    0.9317    3.0040    0.0000 H   0  0  0  0  0  0  0  0  0  0  0  0
    0.1730    3.1524    0.0000 H   0  0  0  0  0  0  0  0  0  0  0  0
    1.7981    1.6101    0.0000 H   0  0  0  0  0  0  0  0  0  0  0  0
    1.5975    2.3058    0.0000 H   0  0  0  0  0  0  0  0  0  0  0  0
    1.1785    0.1825    0.0000 H   0  0  0  0  0  0  0  0  0  0  0  0
    1.6304    0.7507    0.0000 H   0  0  0  0  0  0  0  0  0  0  0  0
   -0.3808    0.5218    0.0000 H   0  0  0  0  0  0  0  0  0  0  0  0
   -0.8675   -0.1619    0.0000 H   0  0  0  0  0  0  0  0  0  0  0  0
    1.2663   -1.2329    0.0000 H   0  0  0  0  0  0  0  0  0  0  0  0
    1.3731   -0.4162    0.0000 H   0  0  0  0  0  0  0  0  0  0  0  0
    1.8959   -2.4279    0.0000 H   0  0  0  0  0  0  0  0  0  0  0  0
    1.9672   -1.8680    0.0000 H   0  0  0  0  0  0  0  0  0  0  0  0
    2.5289   -3.4987    0.0000 H   0  0  0  0  0  0  0  0  0  0  0  0
    2.2660   -4.6862    0.0000 H   0  0  0  0  0  0  0  0  0  0  0  0
   -0.5688   -4.3237    0.0000 H   0  0  0  0  0  0  0  0  0  0  0  0
   -0.3595   -2.6870    0.0000 H   0  0  0  0  0  0  0  0  0  0  0  0
  1  2  1  0  0  0  0
  1 30  1  0  0  0  0
  1 31  1  0  0  0  0
  1 32  1  0  0  0  0
  3  2  1  0  0  0  0
  3 27  1  6  0  0  0
  3  4  1  0  0  0  0
 24  3  1  0  0  0  0
  5  4  1  0  0  0  0
  5  6  1  6  0  0  0
  5  7  1  0  0  0  0
  5 26  1  0  0  0  0
  6 33  1  0  0  0  0
  6 34  1  0  0  0  0
  6 35  1  0  0  0  0
  7  8  1  0  0  0  0
  7 36  1  0  0  0  0
  7 37  1  0  0  0  0
  9  8  1  0  0  0  0
  8 38  1  0  0  0  0
  8 39  1  0  0  0  0
  9 28  1  6  0  0  0
  9 10  1  0  0  0  0
 24  9  1  0  0  0  0
 10 11  1  0  0  0  0
 10 40  1  0  0  0  0
 10 41  1  0  0  0  0
 11 12  1  0  0  0  0
 11 42  1  0  0  0  0
 11 43  1  0  0  0  0
 13 12  1  0  0  0  0
 12 44  1  0  0  0  0
 12 45  1  0  0  0  0
 13 29  1  6  0  0  0
 13 14  1  0  0  0  0
 24 13  1  0  0  0  0
 14 15  1  0  0  0  0
 14 46  1  0  0  0  0
 14 47  1  0  0  0  0
 15 16  1  0  0  0  0
 15 48  1  0  0  0  0
 15 49  1  0  0  0  0
 16 17  1  0  0  0  0
 17 18  1  0  0  0  0
 17 50  1  0  0  0  0
 17 51  1  0  0  0  0
 18 19  1  0  0  0  0
 18 23  2  0  0  0  0
 19 20  2  0  0  0  0
 19 52  1  0  0  0  0
 20 21  1  0  0  0  0
 20 53  1  0  0  0  0
 21 22  2  0  0  0  0
 22 23  1  0  0  0  0
 22 54  1  0  0  0  0
 23 55  1  0  0  0  0
 24 25  1  6  0  0  0
 25 26  1  0  0  0  0
M  END
