
  Mrv171c004271813302D          

 53 57  0  0  0  0            999 V2000
    1.2511    0.9960    0.0000 O   0  0  0  0  0  0  0  0  0  0  0  0
    1.2511    0.1710    0.0000 S   0  0  0  0  0  0  0  0  0  0  0  0
    1.2511   -0.6540    0.0000 O   0  0  0  0  0  0  0  0  0  0  0  0
    2.0761    0.1710    0.0000 C   0  0  0  0  0  0  0  0  0  0  0  0
    2.4886    0.8855    0.0000 C   0  0  0  0  0  0  0  0  0  0  0  0
    3.3136    0.8855    0.0000 C   0  0  0  0  0  0  0  0  0  0  0  0
    3.7261    0.1710    0.0000 C   0  0  0  0  0  0  0  0  0  0  0  0
    3.3136   -0.5434    0.0000 C   0  0  0  0  0  0  0  0  0  0  0  0
    2.4886   -0.5434    0.0000 C   0  0  0  0  0  0  0  0  0  0  0  0
    0.4261    0.1710    0.0000 N   0  0  0  0  0  0  0  0  0  0  0  0
    0.0681   -0.5723    0.0000 C   0  0  0  0  0  0  0  0  0  0  0  0
   -0.7362   -0.7558    0.0000 C   0  0  1  0  0  0  0  0  0  0  0  0
   -0.9198   -1.5602    0.0000 C   0  0  0  0  0  0  0  0  0  0  0  0
   -0.3150   -2.1213    0.0000 C   0  0  0  0  0  0  0  0  0  0  0  0
   -0.4986   -2.9256    0.0000 C   0  0  0  0  0  0  0  0  0  0  0  0
   -1.2869   -3.1688    0.0000 C   0  0  0  0  0  0  0  0  0  0  0  0
   -1.8917   -2.6077    0.0000 C   0  0  0  0  0  0  0  0  0  0  0  0
   -1.7081   -1.8033    0.0000 C   0  0  0  0  0  0  0  0  0  0  0  0
   -1.3812   -0.2415    0.0000 C   0  0  0  0  0  0  0  0  0  0  0  0
   -1.3812    0.5835    0.0000 C   0  0  0  0  0  0  0  0  0  0  0  0
   -0.7362    1.0979    0.0000 C   0  0  1  0  0  0  0  0  0  0  0  0
   -0.9198    1.9022    0.0000 C   0  0  0  0  0  0  0  0  0  0  0  0
   -1.7081    2.1454    0.0000 C   0  0  0  0  0  0  0  0  0  0  0  0
   -1.8917    2.9497    0.0000 C   0  0  0  0  0  0  0  0  0  0  0  0
   -1.2869    3.5109    0.0000 C   0  0  0  0  0  0  0  0  0  0  0  0
   -0.4986    3.2677    0.0000 C   0  0  0  0  0  0  0  0  0  0  0  0
   -0.3150    2.4634    0.0000 C   0  0  0  0  0  0  0  0  0  0  0  0
    0.0681    0.9143    0.0000 C   0  0  0  0  0  0  0  0  0  0  0  0
   -0.5817    0.4800    0.0000 O   0  0  0  0  0  0  0  0  0  0  0  0
   -0.5817   -0.1379    0.0000 O   0  0  0  0  0  0  0  0  0  0  0  0
    2.0761    1.6000    0.0000 H   0  0  0  0  0  0  0  0  0  0  0  0
    3.7261    1.6000    0.0000 H   0  0  0  0  0  0  0  0  0  0  0  0
    4.5511    0.1710    0.0000 H   0  0  0  0  0  0  0  0  0  0  0  0
    3.7261   -1.2579    0.0000 H   0  0  0  0  0  0  0  0  0  0  0  0
    2.0761   -1.2579    0.0000 H   0  0  0  0  0  0  0  0  0  0  0  0
    0.2517   -1.3766    0.0000 H   0  0  0  0  0  0  0  0  0  0  0  0
    0.8114   -0.9302    0.0000 H   0  0  0  0  0  0  0  0  0  0  0  0
    0.4323   -2.4708    0.0000 H   0  0  0  0  0  0  0  0  0  0  0  0
    0.1062   -3.4868    0.0000 H   0  0  0  0  0  0  0  0  0  0  0  0
   -1.4705   -3.9731    0.0000 H   0  0  0  0  0  0  0  0  0  0  0  0
   -2.6801   -2.8508    0.0000 H   0  0  0  0  0  0  0  0  0  0  0  0
   -2.3129   -1.2422    0.0000 H   0  0  0  0  0  0  0  0  0  0  0  0
   -2.2062   -0.2415    0.0000 H   0  0  0  0  0  0  0  0  0  0  0  0
   -1.8956   -0.8865    0.0000 H   0  0  0  0  0  0  0  0  0  0  0  0
   -1.8956    1.2285    0.0000 H   0  0  0  0  0  0  0  0  0  0  0  0
   -2.2062    0.5835    0.0000 H   0  0  0  0  0  0  0  0  0  0  0  0
   -2.5331    2.1360    0.0000 H   0  0  0  0  0  0  0  0  0  0  0  0
   -2.6801    3.1929    0.0000 H   0  0  0  0  0  0  0  0  0  0  0  0
   -1.4705    4.3152    0.0000 H   0  0  0  0  0  0  0  0  0  0  0  0
    0.1062    3.8288    0.0000 H   0  0  0  0  0  0  0  0  0  0  0  0
    0.4733    2.2202    0.0000 H   0  0  0  0  0  0  0  0  0  0  0  0
    0.8114    1.2723    0.0000 H   0  0  0  0  0  0  0  0  0  0  0  0
    0.2517    1.7186    0.0000 H   0  0  0  0  0  0  0  0  0  0  0  0
  1  2  2  0  0  0  0
  2  3  2  0  0  0  0
  2  4  1  0  0  0  0
  2 10  1  0  0  0  0
  4  5  1  0  0  0  0
  4  9  2  0  0  0  0
  5  6  2  0  0  0  0
  5 31  1  0  0  0  0
  6  7  1  0  0  0  0
  6 32  1  0  0  0  0
  7  8  2  0  0  0  0
  7 33  1  0  0  0  0
  8  9  1  0  0  0  0
  8 34  1  0  0  0  0
  9 35  1  0  0  0  0
 10 11  1  0  0  0  0
 10 28  1  0  0  0  0
 12 11  1  0  0  0  0
 11 36  1  0  0  0  0
 11 37  1  0  0  0  0
 12 13  1  6  0  0  0
 12 19  1  0  0  0  0
 12 30  1  0  0  0  0
 13 14  1  0  0  0  0
 13 18  2  0  0  0  0
 14 15  2  0  0  0  0
 14 38  1  0  0  0  0
 15 16  1  0  0  0  0
 15 39  1  0  0  0  0
 16 17  2  0  0  0  0
 16 40  1  0  0  0  0
 17 18  1  0  0  0  0
 17 41  1  0  0  0  0
 18 42  1  0  0  0  0
 19 20  1  0  0  0  0
 19 43  1  0  0  0  0
 19 44  1  0  0  0  0
 21 20  1  0  0  0  0
 20 45  1  0  0  0  0
 20 46  1  0  0  0  0
 21 22  1  6  0  0  0
 21 28  1  0  0  0  0
 21 29  1  0  0  0  0
 22 23  1  0  0  0  0
 22 27  2  0  0  0  0
 23 24  2  0  0  0  0
 23 47  1  0  0  0  0
 24 25  1  0  0  0  0
 24 48  1  0  0  0  0
 25 26  2  0  0  0  0
 25 49  1  0  0  0  0
 26 27  1  0  0  0  0
 26 50  1  0  0  0  0
 27 51  1  0  0  0  0
 28 52  1  0  0  0  0
 28 53  1  0  0  0  0
 29 30  1  0  0  0  0
M  END
