
  Mrv171c004271813302D          

 55 59  0  0  0  0            999 V2000
    1.0942   -2.2855    0.0000 C   0  0  0  0  0  0  0  0  0  0  0  0
    0.4057   -1.8308    0.0000 C   0  0  1  0  0  0  0  0  0  0  0  0
   -0.3135   -2.2620    0.0000 C   0  0  0  0  0  0  0  0  0  0  0  0
   -0.8770   -1.6425    0.0000 C   0  0  0  0  0  0  0  0  0  0  0  0
   -0.7809   -0.7876    0.0000 C   0  0  1  0  0  0  0  0  0  0  0  0
   -1.6135   -0.5549    0.0000 C   0  0  1  0  0  0  0  0  0  0  0  0
   -2.1738   -1.1605    0.0000 C   0  0  0  0  0  0  0  0  0  0  0  0
   -1.9020    0.2352    0.0000 C   0  0  0  0  0  0  0  0  0  0  0  0
   -2.6845    0.4967    0.0000 O   0  0  0  0  0  0  0  0  0  0  0  0
   -1.1969    0.6928    0.0000 N   0  0  0  0  0  0  0  0  0  0  0  0
   -1.3018    1.5111    0.0000 C   0  0  0  0  0  0  0  0  0  0  0  0
   -0.6456    2.0111    0.0000 C   0  0  0  0  0  0  0  0  0  0  0  0
   -0.7505    2.8294    0.0000 C   0  0  0  0  0  0  0  0  0  0  0  0
   -0.0942    3.3294    0.0000 C   0  0  0  0  0  0  0  0  0  0  0  0
    0.6669    3.0111    0.0000 C   0  0  0  0  0  0  0  0  0  0  0  0
    0.7718    2.1928    0.0000 C   0  0  0  0  0  0  0  0  0  0  0  0
    0.1156    1.6928    0.0000 N   0  0  0  0  0  0  0  0  0  0  0  0
   -0.3821    0.4222    0.0000 C   0  0  2  0  0  0  0  0  0  0  0  0
    0.5506    0.2015    0.0000 O   0  0  0  0  0  0  0  0  0  0  0  0
    1.3826    0.4144    0.0000 C   0  0  1  0  0  0  0  0  0  0  0  0
    2.0681    0.8736    0.0000 C   0  0  0  0  0  0  0  0  0  0  0  0
    1.8684   -0.2833    0.0000 C   0  0  0  0  0  0  0  0  0  0  0  0
    1.3796   -0.9724    0.0000 C   0  0  0  0  0  0  0  0  0  0  0  0
    0.5222   -0.9836    0.0000 C   0  0  2  0  0  0  0  0  0  0  0  0
   -0.0385   -0.2881    0.0000 C   0  0  1  0  0  0  0  0  0  0  0  0
    0.2001    0.6627    0.0000 O   0  0  0  0  0  0  0  0  0  0  0  0
    0.9263    1.1231    0.0000 O   0  0  0  0  0  0  0  0  0  0  0  0
   -1.3888   -1.3487    0.0000 H   0  0  0  0  0  0  0  0  0  0  0  0
   -0.2727   -1.2044    0.0000 H   0  0  0  0  0  0  0  0  0  0  0  0
    0.6395   -2.9739    0.0000 H   0  0  0  0  0  0  0  0  0  0  0  0
    1.7826   -2.7401    0.0000 H   0  0  0  0  0  0  0  0  0  0  0  0
    1.5488   -1.5970    0.0000 H   0  0  0  0  0  0  0  0  0  0  0  0
    1.1572   -1.4904    0.0000 H   0  0  0  0  0  0  0  0  0  0  0  0
   -0.8114   -2.9198    0.0000 H   0  0  0  0  0  0  0  0  0  0  0  0
   -0.0265   -3.0355    0.0000 H   0  0  0  0  0  0  0  0  0  0  0  0
   -1.6950   -1.5352    0.0000 H   0  0  0  0  0  0  0  0  0  0  0  0
   -1.4769   -2.2088    0.0000 H   0  0  0  0  0  0  0  0  0  0  0  0
   -0.9122    0.0269    0.0000 H   0  0  0  0  0  0  0  0  0  0  0  0
   -2.5342   -0.4184    0.0000 H   0  0  0  0  0  0  0  0  0  0  0  0
   -2.9961   -1.2265    0.0000 H   0  0  0  0  0  0  0  0  0  0  0  0
   -2.4112   -1.9506    0.0000 H   0  0  0  0  0  0  0  0  0  0  0  0
   -1.8391    2.1372    0.0000 H   0  0  0  0  0  0  0  0  0  0  0  0
   -2.1248    1.4540    0.0000 H   0  0  0  0  0  0  0  0  0  0  0  0
   -1.5116    3.1477    0.0000 H   0  0  0  0  0  0  0  0  0  0  0  0
   -0.1992    4.1477    0.0000 H   0  0  0  0  0  0  0  0  0  0  0  0
    1.3231    3.5111    0.0000 H   0  0  0  0  0  0  0  0  0  0  0  0
    1.5329    1.8745    0.0000 H   0  0  0  0  0  0  0  0  0  0  0  0
   -0.4114    1.2467    0.0000 H   0  0  0  0  0  0  0  0  0  0  0  0
    2.5272    0.1881    0.0000 H   0  0  0  0  0  0  0  0  0  0  0  0
    2.7535    1.3327    0.0000 H   0  0  0  0  0  0  0  0  0  0  0  0
    1.6090    1.5590    0.0000 H   0  0  0  0  0  0  0  0  0  0  0  0
    2.1274   -1.0666    0.0000 H   0  0  0  0  0  0  0  0  0  0  0  0
    2.6528   -0.5391    0.0000 H   0  0  0  0  0  0  0  0  0  0  0  0
    1.2836   -0.1530    0.0000 H   0  0  0  0  0  0  0  0  0  0  0  0
    0.7597   -0.4280    0.0000 H   0  0  0  0  0  0  0  0  0  0  0  0
  2  1  1  1  0  0  0
  1 30  1  0  0  0  0
  1 31  1  0  0  0  0
  1 32  1  0  0  0  0
  2  3  1  0  0  0  0
 24  2  1  0  0  0  0
  2 33  1  6  0  0  0
  3  4  1  0  0  0  0
  3 34  1  0  0  0  0
  3 35  1  0  0  0  0
  5  4  1  0  0  0  0
  4 36  1  0  0  0  0
  4 37  1  0  0  0  0
  5  6  1  0  0  0  0
 25  5  1  0  0  0  0
  5 38  1  6  0  0  0
  6 28  1  6  0  0  0
  6  7  1  1  0  0  0
  6  8  1  0  0  0  0
  7 39  1  0  0  0  0
  7 40  1  0  0  0  0
  7 41  1  0  0  0  0
  8  9  2  0  0  0  0
  8 10  1  0  0  0  0
 10 11  1  0  0  0  0
 18 10  1  0  0  0  0
 11 12  1  0  0  0  0
 11 42  1  0  0  0  0
 11 43  1  0  0  0  0
 12 13  1  0  0  0  0
 12 17  2  0  0  0  0
 13 14  2  0  0  0  0
 13 44  1  0  0  0  0
 14 15  1  0  0  0  0
 14 45  1  0  0  0  0
 15 16  2  0  0  0  0
 15 46  1  0  0  0  0
 16 17  1  0  0  0  0
 16 47  1  0  0  0  0
 18 19  1  0  0  0  0
 25 18  1  0  0  0  0
 18 48  1  1  0  0  0
 20 19  1  0  0  0  0
 20 21  1  1  0  0  0
 20 22  1  0  0  0  0
 20 27  1  0  0  0  0
 21 49  1  0  0  0  0
 21 50  1  0  0  0  0
 21 51  1  0  0  0  0
 22 23  1  0  0  0  0
 22 52  1  0  0  0  0
 22 53  1  0  0  0  0
 24 23  1  0  0  0  0
 23 54  1  0  0  0  0
 23 55  1  0  0  0  0
 24 29  1  6  0  0  0
 25 24  1  0  0  0  0
 25 26  1  6  0  0  0
 26 27  1  0  0  0  0
M  END
