
  Mrv171c004271813302D          

 42 44  0  0  0  0            999 V2000
    1.0228    1.2506    0.0000 C   0  0  0  0  0  0  0  0  0  0  0  0
    0.1391    1.1564    0.0000 C   0  0  0  0  0  0  0  0  0  0  0  0
   -0.3518    0.4042    0.0000 C   0  0  1  0  0  0  0  0  0  0  0  0
   -1.1354    0.7641    0.0000 C   0  0  0  0  0  0  0  0  0  0  0  0
   -1.7084    0.1537    0.0000 C   0  0  0  0  0  0  0  0  0  0  0  0
   -2.1802    0.8305    0.0000 C   0  0  0  0  0  0  0  0  0  0  0  0
   -2.4681   -0.1681    0.0000 C   0  0  0  0  0  0  0  0  0  0  0  0
   -1.5476   -0.6711    0.0000 C   0  0  0  0  0  0  0  0  0  0  0  0
   -0.7821   -1.0126    0.0000 C   0  0  0  0  0  0  0  0  0  0  0  0
   -0.1122   -0.4775    0.0000 C   0  0  1  0  0  0  0  0  0  0  0  0
    0.6189   -0.1944    0.0000 O   0  0  0  0  0  0  0  0  0  0  0  0
    0.7497    0.5723    0.0000 O   0  0  0  0  0  0  0  0  0  0  0  0
    1.5436    0.5239    0.0000 C   0  0  1  0  0  0  0  0  0  0  0  0
    2.3438    0.7246    0.0000 C   0  0  0  0  0  0  0  0  0  0  0  0
    1.4266   -0.3672    0.0000 O   0  0  0  0  0  0  0  0  0  0  0  0
    0.6999   -0.8965    0.0000 C   0  0  1  0  0  0  0  0  0  0  0  0
    0.7631   -1.7190    0.0000 O   0  0  0  0  0  0  0  0  0  0  0  0
    1.5071   -2.0756    0.0000 C   0  0  0  0  0  0  0  0  0  0  0  0
    1.6626    1.7713    0.0000 H   0  0  0  0  0  0  0  0  0  0  0  0
    0.9857    2.0747    0.0000 H   0  0  0  0  0  0  0  0  0  0  0  0
    0.4631    0.2757    0.0000 H   0  0  0  0  0  0  0  0  0  0  0  0
   -1.0599   -1.7894    0.0000 H   0  0  0  0  0  0  0  0  0  0  0  0
   -0.3178   -1.6945    0.0000 H   0  0  0  0  0  0  0  0  0  0  0  0
    0.0552    1.9771    0.0000 H   0  0  0  0  0  0  0  0  0  0  0  0
   -0.5538    1.6043    0.0000 H   0  0  0  0  0  0  0  0  0  0  0  0
   -0.8959    1.5535    0.0000 H   0  0  0  0  0  0  0  0  0  0  0  0
   -1.6547    1.4051    0.0000 H   0  0  0  0  0  0  0  0  0  0  0  0
   -2.4877    1.5960    0.0000 H   0  0  0  0  0  0  0  0  0  0  0  0
   -3.0034    0.8849    0.0000 H   0  0  0  0  0  0  0  0  0  0  0  0
   -2.5859    0.1121    0.0000 H   0  0  0  0  0  0  0  0  0  0  0  0
   -3.2931   -0.1729    0.0000 H   0  0  0  0  0  0  0  0  0  0  0  0
   -2.7788   -0.9323    0.0000 H   0  0  0  0  0  0  0  0  0  0  0  0
   -1.8805   -0.7472    0.0000 H   0  0  0  0  0  0  0  0  0  0  0  0
   -1.6279   -1.4922    0.0000 H   0  0  0  0  0  0  0  0  0  0  0  0
   -0.9019   -0.1576    0.0000 H   0  0  0  0  0  0  0  0  0  0  0  0
    2.5445   -0.0757    0.0000 H   0  0  0  0  0  0  0  0  0  0  0  0
    3.1441    0.9252    0.0000 H   0  0  0  0  0  0  0  0  0  0  0  0
    2.1432    1.5248    0.0000 H   0  0  0  0  0  0  0  0  0  0  0  0
    0.0124   -1.3524    0.0000 H   0  0  0  0  0  0  0  0  0  0  0  0
    1.1505   -2.8196    0.0000 H   0  0  0  0  0  0  0  0  0  0  0  0
    2.2511   -2.4322    0.0000 H   0  0  0  0  0  0  0  0  0  0  0  0
    1.8637   -1.3316    0.0000 H   0  0  0  0  0  0  0  0  0  0  0  0
  1 19  1  0  0  0  0
  1 20  1  0  0  0  0
  1  2  1  0  0  0  0
 13  1  1  0  0  0  0
  3  2  1  0  0  0  0
  2 24  1  0  0  0  0
  2 25  1  0  0  0  0
  3 21  1  1  0  0  0
  3  4  1  0  0  0  0
 10  3  1  0  0  0  0
  4  5  1  0  0  0  0
  4 26  1  0  0  0  0
  4 27  1  0  0  0  0
  5  6  1  0  0  0  0
  5  7  1  0  0  0  0
  5  8  1  0  0  0  0
  6 28  1  0  0  0  0
  6 29  1  0  0  0  0
  6 30  1  0  0  0  0
  7 31  1  0  0  0  0
  7 32  1  0  0  0  0
  7 33  1  0  0  0  0
  8  9  1  0  0  0  0
  8 34  1  0  0  0  0
  8 35  1  0  0  0  0
  9 22  1  0  0  0  0
  9 23  1  0  0  0  0
 10  9  1  0  0  0  0
 10 11  1  6  0  0  0
 10 16  1  0  0  0  0
 11 12  1  0  0  0  0
 13 12  1  0  0  0  0
 13 14  1  6  0  0  0
 13 15  1  0  0  0  0
 14 36  1  0  0  0  0
 14 37  1  0  0  0  0
 14 38  1  0  0  0  0
 16 15  1  0  0  0  0
 16 17  1  0  0  0  0
 16 39  1  6  0  0  0
 17 18  1  0  0  0  0
 18 40  1  0  0  0  0
 18 41  1  0  0  0  0
 18 42  1  0  0  0  0
M  END
