
  Mrv171c004271813302D          

 56 60  0  0  0  0            999 V2000
   -1.1052    0.9582    0.0000 C   0  0  0  0  0  0  0  0  0  0  0  0
   -1.4170    0.1678    0.0000 C   0  0  0  0  0  0  0  0  0  0  0  0
   -2.2019   -0.0864    0.0000 O   0  0  0  0  0  0  0  0  0  0  0  0
   -0.7073   -0.2858    0.0000 N   0  0  0  0  0  0  0  0  0  0  0  0
   -0.7997   -1.1056    0.0000 C   0  0  0  0  0  0  0  0  0  0  0  0
   -1.5559   -1.4355    0.0000 C   0  0  0  0  0  0  0  0  0  0  0  0
   -1.6483   -2.2553    0.0000 C   0  0  0  0  0  0  0  0  0  0  0  0
   -0.9845   -2.7452    0.0000 C   0  0  0  0  0  0  0  0  0  0  0  0
   -1.0769   -3.5650    0.0000 C   0  0  0  0  0  0  0  0  0  0  0  0
   -1.8331   -3.8949    0.0000 C   0  0  0  0  0  0  0  0  0  0  0  0
   -2.4969   -3.4049    0.0000 C   0  0  0  0  0  0  0  0  0  0  0  0
   -2.4045   -2.5851    0.0000 C   0  0  0  0  0  0  0  0  0  0  0  0
    0.1210    0.0111    0.0000 C   0  0  2  0  0  0  0  0  0  0  0  0
    1.0562    0.2612    0.0000 O   0  0  0  0  0  0  0  0  0  0  0  0
    1.8691   -0.0239    0.0000 C   0  0  1  0  0  0  0  0  0  0  0  0
    2.5395   -0.5047    0.0000 C   0  0  0  0  0  0  0  0  0  0  0  0
    2.3730    0.6758    0.0000 C   0  0  0  0  0  0  0  0  0  0  0  0
    1.8888    1.3797    0.0000 C   0  0  0  0  0  0  0  0  0  0  0  0
    1.0305    1.4364    0.0000 C   0  0  1  0  0  0  0  0  0  0  0  0
    0.9068    2.2855    0.0000 C   0  0  1  0  0  0  0  0  0  0  0  0
    1.5852    2.7550    0.0000 C   0  0  0  0  0  0  0  0  0  0  0  0
    0.1731    2.6908    0.0000 C   0  0  0  0  0  0  0  0  0  0  0  0
   -0.3773    2.0738    0.0000 C   0  0  0  0  0  0  0  0  0  0  0  0
   -0.2893    1.2327    0.0000 C   0  0  2  0  0  0  0  0  0  0  0  0
    0.4507    0.7417    0.0000 C   0  0  1  0  0  0  0  0  0  0  0  0
    0.6994   -0.1892    0.0000 O   0  0  0  0  0  0  0  0  0  0  0  0
    1.3693   -0.7236    0.0000 O   0  0  0  0  0  0  0  0  0  0  0  0
   -1.3601    1.7429    0.0000 H   0  0  0  0  0  0  0  0  0  0  0  0
   -1.8758    1.2528    0.0000 H   0  0  0  0  0  0  0  0  0  0  0  0
    0.2366    1.6608    0.0000 H   0  0  0  0  0  0  0  0  0  0  0  0
   -0.4264   -1.8413    0.0000 H   0  0  0  0  0  0  0  0  0  0  0  0
    0.0133   -1.2455    0.0000 H   0  0  0  0  0  0  0  0  0  0  0  0
   -1.9292   -0.6997    0.0000 H   0  0  0  0  0  0  0  0  0  0  0  0
   -2.3689   -1.2955    0.0000 H   0  0  0  0  0  0  0  0  0  0  0  0
   -0.2284   -2.4153    0.0000 H   0  0  0  0  0  0  0  0  0  0  0  0
   -0.4132   -4.0549    0.0000 H   0  0  0  0  0  0  0  0  0  0  0  0
   -1.9255   -4.7147    0.0000 H   0  0  0  0  0  0  0  0  0  0  0  0
   -3.2531   -3.7348    0.0000 H   0  0  0  0  0  0  0  0  0  0  0  0
   -3.0683   -2.0952    0.0000 H   0  0  0  0  0  0  0  0  0  0  0  0
    0.1254   -0.8138    0.0000 H   0  0  0  0  0  0  0  0  0  0  0  0
    2.0587   -1.1752    0.0000 H   0  0  0  0  0  0  0  0  0  0  0  0
    3.2100   -0.9855    0.0000 H   0  0  0  0  0  0  0  0  0  0  0  0
    3.0203    0.1657    0.0000 H   0  0  0  0  0  0  0  0  0  0  0  0
    3.1659    0.9034    0.0000 H   0  0  0  0  0  0  0  0  0  0  0  0
    2.6515    1.4524    0.0000 H   0  0  0  0  0  0  0  0  0  0  0  0
    1.8768    2.2046    0.0000 H   0  0  0  0  0  0  0  0  0  0  0  0
    1.4810    0.6625    0.0000 H   0  0  0  0  0  0  0  0  0  0  0  0
    1.6633    1.9564    0.0000 H   0  0  0  0  0  0  0  0  0  0  0  0
    2.4039    2.8571    0.0000 H   0  0  0  0  0  0  0  0  0  0  0  0
    1.7806    3.5565    0.0000 H   0  0  0  0  0  0  0  0  0  0  0  0
    0.9054    3.2224    0.0000 H   0  0  0  0  0  0  0  0  0  0  0  0
   -0.1192    3.4623    0.0000 H   0  0  0  0  0  0  0  0  0  0  0  0
   -0.5651    3.0591    0.0000 H   0  0  0  0  0  0  0  0  0  0  0  0
   -0.9789    2.6384    0.0000 H   0  0  0  0  0  0  0  0  0  0  0  0
   -1.1954    1.9673    0.0000 H   0  0  0  0  0  0  0  0  0  0  0  0
   -0.3968    0.4148    0.0000 H   0  0  0  0  0  0  0  0  0  0  0  0
  1 28  1  0  0  0  0
  1 29  1  0  0  0  0
  1  2  1  0  0  0  0
 24  1  1  0  0  0  0
  2  3  2  0  0  0  0
  2  4  1  0  0  0  0
  4  5  1  0  0  0  0
 13  4  1  0  0  0  0
  5  6  1  0  0  0  0
  5 31  1  0  0  0  0
  5 32  1  0  0  0  0
  6  7  1  0  0  0  0
  6 33  1  0  0  0  0
  6 34  1  0  0  0  0
  7  8  1  0  0  0  0
  7 12  2  0  0  0  0
  8  9  2  0  0  0  0
  8 35  1  0  0  0  0
  9 10  1  0  0  0  0
  9 36  1  0  0  0  0
 10 11  2  0  0  0  0
 10 37  1  0  0  0  0
 11 12  1  0  0  0  0
 11 38  1  0  0  0  0
 12 39  1  0  0  0  0
 13 14  1  0  0  0  0
 25 13  1  0  0  0  0
 13 40  1  6  0  0  0
 15 14  1  0  0  0  0
 15 16  1  6  0  0  0
 15 17  1  0  0  0  0
 15 27  1  0  0  0  0
 16 41  1  0  0  0  0
 16 42  1  0  0  0  0
 16 43  1  0  0  0  0
 17 18  1  0  0  0  0
 17 44  1  0  0  0  0
 17 45  1  0  0  0  0
 19 18  1  0  0  0  0
 18 46  1  0  0  0  0
 18 47  1  0  0  0  0
 19 30  1  1  0  0  0
 19 20  1  0  0  0  0
 25 19  1  0  0  0  0
 20 21  1  6  0  0  0
 20 22  1  0  0  0  0
 20 48  1  1  0  0  0
 21 49  1  0  0  0  0
 21 50  1  0  0  0  0
 21 51  1  0  0  0  0
 22 23  1  0  0  0  0
 22 52  1  0  0  0  0
 22 53  1  0  0  0  0
 24 23  1  0  0  0  0
 23 54  1  0  0  0  0
 23 55  1  0  0  0  0
 25 24  1  0  0  0  0
 24 56  1  1  0  0  0
 25 26  1  1  0  0  0
 26 27  1  0  0  0  0
M  END
