
  Mrv171c004271813302D          

 50 53  0  0  0  0            999 V2000
   -0.0242    1.8306    0.0000 C   0  0  0  0  0  0  0  0  0  0  0  0
   -0.5747    1.2135    0.0000 C   0  0  0  0  0  0  0  0  0  0  0  0
   -0.4866    0.3725    0.0000 C   0  0  1  0  0  0  0  0  0  0  0  0
   -1.3026    0.0979    0.0000 C   0  0  1  0  0  0  0  0  0  0  0  0
   -1.8708    0.6960    0.0000 C   0  0  0  0  0  0  0  0  0  0  0  0
   -1.6144   -0.6925    0.0000 C   0  0  1  0  0  0  0  0  0  0  0  0
   -2.3992   -0.9467    0.0000 O   0  0  0  0  0  0  0  0  0  0  0  0
   -2.5715   -1.7535    0.0000 C   0  0  0  0  0  0  0  0  0  0  0  0
   -3.3564   -2.0077    0.0000 C   0  0  0  0  0  0  0  0  0  0  0  0
   -0.9047   -1.1461    0.0000 O   0  0  0  0  0  0  0  0  0  0  0  0
   -0.0764   -0.8491    0.0000 C   0  0  2  0  0  0  0  0  0  0  0  0
    0.8589   -0.5991    0.0000 O   0  0  0  0  0  0  0  0  0  0  0  0
    1.6718   -0.8842    0.0000 C   0  0  1  0  0  0  0  0  0  0  0  0
    2.3422   -1.3650    0.0000 C   0  0  0  0  0  0  0  0  0  0  0  0
    2.1756   -0.1845    0.0000 C   0  0  0  0  0  0  0  0  0  0  0  0
    1.6915    0.5194    0.0000 C   0  0  0  0  0  0  0  0  0  0  0  0
    0.8332    0.5761    0.0000 C   0  0  1  0  0  0  0  0  0  0  0  0
    0.7095    1.4252    0.0000 C   0  0  1  0  0  0  0  0  0  0  0  0
    1.3879    1.8947    0.0000 C   0  0  0  0  0  0  0  0  0  0  0  0
    1.3205    2.7170    0.0000 F   0  0  0  0  0  0  0  0  0  0  0  0
    2.1336    1.5420    0.0000 F   0  0  0  0  0  0  0  0  0  0  0  0
    0.2533   -0.1186    0.0000 C   0  0  1  0  0  0  0  0  0  0  0  0
    0.5020   -1.0495    0.0000 O   0  0  0  0  0  0  0  0  0  0  0  0
    1.1720   -1.5839    0.0000 O   0  0  0  0  0  0  0  0  0  0  0  0
    0.2430    2.6111    0.0000 H   0  0  0  0  0  0  0  0  0  0  0  0
   -0.5350    2.4785    0.0000 H   0  0  0  0  0  0  0  0  0  0  0  0
   -1.1039    0.8986    0.0000 H   0  0  0  0  0  0  0  0  0  0  0  0
   -1.7195   -1.5108    0.0000 H   0  0  0  0  0  0  0  0  0  0  0  0
    0.0393    0.8005    0.0000 H   0  0  0  0  0  0  0  0  0  0  0  0
   -1.1762    1.7781    0.0000 H   0  0  0  0  0  0  0  0  0  0  0  0
   -1.3928    1.1070    0.0000 H   0  0  0  0  0  0  0  0  0  0  0  0
   -0.5941   -0.4455    0.0000 H   0  0  0  0  0  0  0  0  0  0  0  0
   -2.1380    1.4765    0.0000 H   0  0  0  0  0  0  0  0  0  0  0  0
   -2.6948    0.7376    0.0000 H   0  0  0  0  0  0  0  0  0  0  0  0
   -2.2153   -0.0536    0.0000 H   0  0  0  0  0  0  0  0  0  0  0  0
   -2.7534   -2.5582    0.0000 H   0  0  0  0  0  0  0  0  0  0  0  0
   -1.9723   -2.3205    0.0000 H   0  0  0  0  0  0  0  0  0  0  0  0
   -3.3975   -1.1837    0.0000 H   0  0  0  0  0  0  0  0  0  0  0  0
   -4.1627   -1.8330    0.0000 H   0  0  0  0  0  0  0  0  0  0  0  0
   -3.7349   -2.7407    0.0000 H   0  0  0  0  0  0  0  0  0  0  0  0
   -0.0719   -1.6741    0.0000 H   0  0  0  0  0  0  0  0  0  0  0  0
    1.8614   -2.0354    0.0000 H   0  0  0  0  0  0  0  0  0  0  0  0
    3.0126   -1.8458    0.0000 H   0  0  0  0  0  0  0  0  0  0  0  0
    2.8230   -0.6946    0.0000 H   0  0  0  0  0  0  0  0  0  0  0  0
    2.9686    0.0431    0.0000 H   0  0  0  0  0  0  0  0  0  0  0  0
    2.4541    0.5921    0.0000 H   0  0  0  0  0  0  0  0  0  0  0  0
    1.6795    1.3443    0.0000 H   0  0  0  0  0  0  0  0  0  0  0  0
    1.2836   -0.1978    0.0000 H   0  0  0  0  0  0  0  0  0  0  0  0
    0.6680    2.2492    0.0000 H   0  0  0  0  0  0  0  0  0  0  0  0
    2.0663    2.3642    0.0000 H   0  0  0  0  0  0  0  0  0  0  0  0
  1 25  1  0  0  0  0
  1 26  1  0  0  0  0
  1  2  1  0  0  0  0
 18  1  1  0  0  0  0
  3  2  1  0  0  0  0
  2 30  1  0  0  0  0
  2 31  1  0  0  0  0
  3  4  1  0  0  0  0
 22  3  1  0  0  0  0
  3 32  1  1  0  0  0
  4 27  1  1  0  0  0
  4  5  1  6  0  0  0
  4  6  1  0  0  0  0
  5 33  1  0  0  0  0
  5 34  1  0  0  0  0
  5 35  1  0  0  0  0
  6 28  1  1  0  0  0
  6  7  1  6  0  0  0
  6 10  1  0  0  0  0
  7  8  1  0  0  0  0
  8  9  1  0  0  0  0
  8 36  1  0  0  0  0
  8 37  1  0  0  0  0
  9 38  1  0  0  0  0
  9 39  1  0  0  0  0
  9 40  1  0  0  0  0
 11 10  1  0  0  0  0
 11 12  1  0  0  0  0
 22 11  1  0  0  0  0
 11 41  1  6  0  0  0
 13 12  1  0  0  0  0
 13 14  1  6  0  0  0
 13 15  1  0  0  0  0
 13 24  1  0  0  0  0
 14 42  1  0  0  0  0
 14 43  1  0  0  0  0
 14 44  1  0  0  0  0
 15 16  1  0  0  0  0
 15 45  1  0  0  0  0
 15 46  1  0  0  0  0
 17 16  1  0  0  0  0
 16 47  1  0  0  0  0
 16 48  1  0  0  0  0
 17 29  1  1  0  0  0
 17 18  1  0  0  0  0
 22 17  1  0  0  0  0
 18 19  1  6  0  0  0
 18 49  1  1  0  0  0
 19 20  1  0  0  0  0
 19 21  1  0  0  0  0
 19 50  1  0  0  0  0
 22 23  1  1  0  0  0
 23 24  1  0  0  0  0
M  END
