
  Mrv171c004271813302D          

 49 52  0  0  0  0            999 V2000
   -1.4237    0.3391    0.0000 C   0  0  0  0  0  0  0  0  0  0  0  0
   -1.7354   -0.4514    0.0000 C   0  0  0  0  0  0  0  0  0  0  0  0
   -2.5203   -0.7055    0.0000 O   0  0  0  0  0  0  0  0  0  0  0  0
   -1.0258   -0.9049    0.0000 N   0  0  0  0  0  0  0  0  0  0  0  0
   -1.1182   -1.7247    0.0000 C   0  0  0  0  0  0  0  0  0  0  0  0
   -1.8744   -2.0546    0.0000 C   0  0  0  0  0  0  0  0  0  0  0  0
   -1.9668   -2.8744    0.0000 C   0  0  0  0  0  0  0  0  0  0  0  0
   -0.1974   -0.6080    0.0000 C   0  0  2  0  0  0  0  0  0  0  0  0
    0.7378   -0.3580    0.0000 O   0  0  0  0  0  0  0  0  0  0  0  0
    1.5507   -0.6431    0.0000 C   0  0  1  0  0  0  0  0  0  0  0  0
    2.2211   -1.1239    0.0000 C   0  0  0  0  0  0  0  0  0  0  0  0
    2.0545    0.0567    0.0000 C   0  0  0  0  0  0  0  0  0  0  0  0
    1.5704    0.7605    0.0000 C   0  0  0  0  0  0  0  0  0  0  0  0
    0.7121    0.8172    0.0000 C   0  0  1  0  0  0  0  0  0  0  0  0
    0.5884    1.6664    0.0000 C   0  0  1  0  0  0  0  0  0  0  0  0
    1.2668    2.1359    0.0000 C   0  0  0  0  0  0  0  0  0  0  0  0
   -0.1453    2.0717    0.0000 C   0  0  0  0  0  0  0  0  0  0  0  0
   -0.6958    1.4547    0.0000 C   0  0  0  0  0  0  0  0  0  0  0  0
   -0.6077    0.6136    0.0000 C   0  0  2  0  0  0  0  0  0  0  0  0
    0.1322    0.1225    0.0000 C   0  0  1  0  0  0  0  0  0  0  0  0
    0.3809   -0.8084    0.0000 O   0  0  0  0  0  0  0  0  0  0  0  0
    1.0509   -1.3428    0.0000 O   0  0  0  0  0  0  0  0  0  0  0  0
   -1.6785    1.1237    0.0000 H   0  0  0  0  0  0  0  0  0  0  0  0
   -2.1943    0.6337    0.0000 H   0  0  0  0  0  0  0  0  0  0  0  0
   -0.0818    1.0416    0.0000 H   0  0  0  0  0  0  0  0  0  0  0  0
   -0.7449   -2.4604    0.0000 H   0  0  0  0  0  0  0  0  0  0  0  0
   -0.3051   -1.8647    0.0000 H   0  0  0  0  0  0  0  0  0  0  0  0
   -2.2476   -1.3189    0.0000 H   0  0  0  0  0  0  0  0  0  0  0  0
   -2.6874   -1.9147    0.0000 H   0  0  0  0  0  0  0  0  0  0  0  0
   -2.7866   -2.7820    0.0000 H   0  0  0  0  0  0  0  0  0  0  0  0
   -2.0592   -3.6942    0.0000 H   0  0  0  0  0  0  0  0  0  0  0  0
   -1.1470   -2.9668    0.0000 H   0  0  0  0  0  0  0  0  0  0  0  0
   -0.1930   -1.4330    0.0000 H   0  0  0  0  0  0  0  0  0  0  0  0
    1.7403   -1.7943    0.0000 H   0  0  0  0  0  0  0  0  0  0  0  0
    2.8915   -1.6047    0.0000 H   0  0  0  0  0  0  0  0  0  0  0  0
    2.7019   -0.4535    0.0000 H   0  0  0  0  0  0  0  0  0  0  0  0
    2.8475    0.2843    0.0000 H   0  0  0  0  0  0  0  0  0  0  0  0
    2.3330    0.8332    0.0000 H   0  0  0  0  0  0  0  0  0  0  0  0
    1.5584    1.5854    0.0000 H   0  0  0  0  0  0  0  0  0  0  0  0
    1.1625    0.0434    0.0000 H   0  0  0  0  0  0  0  0  0  0  0  0
    1.3449    1.3372    0.0000 H   0  0  0  0  0  0  0  0  0  0  0  0
    2.0854    2.2379    0.0000 H   0  0  0  0  0  0  0  0  0  0  0  0
    1.4622    2.9374    0.0000 H   0  0  0  0  0  0  0  0  0  0  0  0
    0.5869    2.6032    0.0000 H   0  0  0  0  0  0  0  0  0  0  0  0
   -0.4377    2.8432    0.0000 H   0  0  0  0  0  0  0  0  0  0  0  0
   -0.8836    2.4400    0.0000 H   0  0  0  0  0  0  0  0  0  0  0  0
   -1.2973    2.0192    0.0000 H   0  0  0  0  0  0  0  0  0  0  0  0
   -1.5138    1.3481    0.0000 H   0  0  0  0  0  0  0  0  0  0  0  0
   -0.7152   -0.2044    0.0000 H   0  0  0  0  0  0  0  0  0  0  0  0
  1 23  1  0  0  0  0
  1 24  1  0  0  0  0
  1  2  1  0  0  0  0
 19  1  1  0  0  0  0
  2  3  2  0  0  0  0
  2  4  1  0  0  0  0
  4  5  1  0  0  0  0
  8  4  1  0  0  0  0
  5  6  1  0  0  0  0
  5 26  1  0  0  0  0
  5 27  1  0  0  0  0
  6  7  1  0  0  0  0
  6 28  1  0  0  0  0
  6 29  1  0  0  0  0
  7 30  1  0  0  0  0
  7 31  1  0  0  0  0
  7 32  1  0  0  0  0
  8  9  1  0  0  0  0
 20  8  1  0  0  0  0
  8 33  1  6  0  0  0
 10  9  1  0  0  0  0
 10 11  1  6  0  0  0
 10 12  1  0  0  0  0
 10 22  1  0  0  0  0
 11 34  1  0  0  0  0
 11 35  1  0  0  0  0
 11 36  1  0  0  0  0
 12 13  1  0  0  0  0
 12 37  1  0  0  0  0
 12 38  1  0  0  0  0
 14 13  1  0  0  0  0
 13 39  1  0  0  0  0
 13 40  1  0  0  0  0
 14 25  1  1  0  0  0
 14 15  1  0  0  0  0
 20 14  1  0  0  0  0
 15 16  1  6  0  0  0
 15 17  1  0  0  0  0
 15 41  1  1  0  0  0
 16 42  1  0  0  0  0
 16 43  1  0  0  0  0
 16 44  1  0  0  0  0
 17 18  1  0  0  0  0
 17 45  1  0  0  0  0
 17 46  1  0  0  0  0
 19 18  1  0  0  0  0
 18 47  1  0  0  0  0
 18 48  1  0  0  0  0
 20 19  1  0  0  0  0
 19 49  1  1  0  0  0
 20 21  1  1  0  0  0
 21 22  1  0  0  0  0
M  END
