
  Mrv171c004271813302D          

 54 57  0  0  0  0            999 V2000
   -1.0497   -2.8344    0.0000 C   0  0  0  0  0  0  0  0  0  0  0  0
   -0.8444   -2.0353    0.0000 C   0  0  0  0  0  0  0  0  0  0  0  0
   -0.0498   -1.8136    0.0000 C   0  0  0  0  0  0  0  0  0  0  0  0
   -1.4338   -1.4580    0.0000 C   0  0  0  0  0  0  0  0  0  0  0  0
   -1.2284   -0.6589    0.0000 N   0  0  0  0  0  0  0  0  0  0  0  0
   -1.8097   -0.0535    0.0000 C   0  0  0  0  0  0  0  0  0  0  0  0
   -2.6104   -0.2523    0.0000 O   0  0  0  0  0  0  0  0  0  0  0  0
   -1.5773    0.7604    0.0000 C   0  0  2  0  0  0  0  0  0  0  0  0
   -2.1516    1.3527    0.0000 C   0  0  0  0  0  0  0  0  0  0  0  0
   -0.7407    0.9715    0.0000 C   0  0  1  0  0  0  0  0  0  0  0  0
   -0.6768    1.8214    0.0000 C   0  0  0  0  0  0  0  0  0  0  0  0
    0.0713    2.1961    0.0000 C   0  0  0  0  0  0  0  0  0  0  0  0
    0.7668    1.7357    0.0000 C   0  0  1  0  0  0  0  0  0  0  0  0
    1.5127    2.0883    0.0000 C   0  0  0  0  0  0  0  0  0  0  0  0
    0.6819    0.9146    0.0000 C   0  0  2  0  0  0  0  0  0  0  0  0
    1.4950    0.6308    0.0000 C   0  0  0  0  0  0  0  0  0  0  0  0
    1.5857   -0.2125    0.0000 C   0  0  0  0  0  0  0  0  0  0  0  0
    0.8609   -0.6812    0.0000 C   0  0  1  0  0  0  0  0  0  0  0  0
    1.2763   -1.3940    0.0000 C   0  0  0  0  0  0  0  0  0  0  0  0
    0.1029   -1.0771    0.0000 O   0  0  0  0  0  0  0  0  0  0  0  0
   -0.4508   -0.4160    0.0000 C   0  0  1  0  0  0  0  0  0  0  0  0
   -0.0929    0.4272    0.0000 C   0  0  1  0  0  0  0  0  0  0  0  0
    0.4007   -0.0483    0.0000 O   0  0  0  0  0  0  0  0  0  0  0  0
   -1.3519    1.5540    0.0000 H   0  0  0  0  0  0  0  0  0  0  0  0
    0.7748    0.0949    0.0000 H   0  0  0  0  0  0  0  0  0  0  0  0
   -1.8488   -2.6290    0.0000 H   0  0  0  0  0  0  0  0  0  0  0  0
   -1.2550   -3.6334    0.0000 H   0  0  0  0  0  0  0  0  0  0  0  0
   -0.2507   -3.0397    0.0000 H   0  0  0  0  0  0  0  0  0  0  0  0
   -0.2551   -2.6126    0.0000 H   0  0  0  0  0  0  0  0  0  0  0  0
    0.6393   -2.2673    0.0000 H   0  0  0  0  0  0  0  0  0  0  0  0
    0.7686   -1.7096    0.0000 H   0  0  0  0  0  0  0  0  0  0  0  0
   -0.6525   -1.2503    0.0000 H   0  0  0  0  0  0  0  0  0  0  0  0
   -2.2434   -1.2995    0.0000 H   0  0  0  0  0  0  0  0  0  0  0  0
   -2.0444   -2.0128    0.0000 H   0  0  0  0  0  0  0  0  0  0  0  0
   -2.1390    2.1776    0.0000 H   0  0  0  0  0  0  0  0  0  0  0  0
   -2.9451    1.5784    0.0000 H   0  0  0  0  0  0  0  0  0  0  0  0
   -2.5751    0.6446    0.0000 H   0  0  0  0  0  0  0  0  0  0  0  0
    0.0196    1.2916    0.0000 H   0  0  0  0  0  0  0  0  0  0  0  0
   -0.6040    2.6432    0.0000 H   0  0  0  0  0  0  0  0  0  0  0  0
   -1.3381    2.3147    0.0000 H   0  0  0  0  0  0  0  0  0  0  0  0
    0.8097    2.5642    0.0000 H   0  0  0  0  0  0  0  0  0  0  0  0
    0.1218    3.0195    0.0000 H   0  0  0  0  0  0  0  0  0  0  0  0
    1.4401    1.2590    0.0000 H   0  0  0  0  0  0  0  0  0  0  0  0
    2.1904    1.6178    0.0000 H   0  0  0  0  0  0  0  0  0  0  0  0
    2.2576    2.4429    0.0000 H   0  0  0  0  0  0  0  0  0  0  0  0
    1.5748    2.9110    0.0000 H   0  0  0  0  0  0  0  0  0  0  0  0
    2.2472    0.2921    0.0000 H   0  0  0  0  0  0  0  0  0  0  0  0
    2.1677    1.1084    0.0000 H   0  0  0  0  0  0  0  0  0  0  0  0
    1.7939   -1.0108    0.0000 H   0  0  0  0  0  0  0  0  0  0  0  0
    2.2665   -0.6785    0.0000 H   0  0  0  0  0  0  0  0  0  0  0  0
    1.1052   -2.2011    0.0000 H   0  0  0  0  0  0  0  0  0  0  0  0
    1.7399   -2.0764    0.0000 H   0  0  0  0  0  0  0  0  0  0  0  0
    2.0896   -1.5322    0.0000 H   0  0  0  0  0  0  0  0  0  0  0  0
   -1.0047    0.1954    0.0000 H   0  0  0  0  0  0  0  0  0  0  0  0
  1  2  1  0  0  0  0
  1 26  1  0  0  0  0
  1 27  1  0  0  0  0
  1 28  1  0  0  0  0
  2  3  1  0  0  0  0
  2  4  1  0  0  0  0
  2 29  1  0  0  0  0
  3 30  1  0  0  0  0
  3 31  1  0  0  0  0
  3 32  1  0  0  0  0
  4  5  1  0  0  0  0
  4 33  1  0  0  0  0
  4 34  1  0  0  0  0
  5  6  1  0  0  0  0
 21  5  1  0  0  0  0
  6  7  2  0  0  0  0
  8  6  1  0  0  0  0
  8 24  1  1  0  0  0
  8  9  1  0  0  0  0
 10  8  1  0  0  0  0
  9 35  1  0  0  0  0
  9 36  1  0  0  0  0
  9 37  1  0  0  0  0
 10 11  1  0  0  0  0
 22 10  1  0  0  0  0
 10 38  1  6  0  0  0
 11 12  1  0  0  0  0
 11 39  1  0  0  0  0
 11 40  1  0  0  0  0
 13 12  1  0  0  0  0
 12 41  1  0  0  0  0
 12 42  1  0  0  0  0
 13 14  1  0  0  0  0
 15 13  1  0  0  0  0
 13 43  1  6  0  0  0
 14 44  1  0  0  0  0
 14 45  1  0  0  0  0
 14 46  1  0  0  0  0
 15 25  1  1  0  0  0
 15 16  1  0  0  0  0
 22 15  1  0  0  0  0
 16 17  1  0  0  0  0
 16 47  1  0  0  0  0
 16 48  1  0  0  0  0
 18 17  1  0  0  0  0
 17 49  1  0  0  0  0
 17 50  1  0  0  0  0
 18 19  1  6  0  0  0
 18 20  1  0  0  0  0
 18 23  1  0  0  0  0
 19 51  1  0  0  0  0
 19 52  1  0  0  0  0
 19 53  1  0  0  0  0
 21 20  1  0  0  0  0
 22 21  1  0  0  0  0
 21 54  1  1  0  0  0
 22 23  1  6  0  0  0
M  END
