
  Mrv171c004271813302D          

 61 64  0  0  0  0            999 V2000
   -0.9386   -5.8425    0.0000 C   0  0  0  0  0  0  0  0  0  0  0  0
   -0.9929   -5.0193    0.0000 O   0  0  0  0  0  0  0  0  0  0  0  0
   -1.7330   -4.6547    0.0000 C   0  0  0  0  0  0  0  0  0  0  0  0
   -2.4188   -5.1134    0.0000 O   0  0  0  0  0  0  0  0  0  0  0  0
   -1.7873   -3.8315    0.0000 C   0  0  0  0  0  0  0  0  0  0  0  0
   -2.5274   -3.4669    0.0000 C   0  0  0  0  0  0  0  0  0  0  0  0
   -2.5817   -2.6437    0.0000 C   0  0  0  0  0  0  0  0  0  0  0  0
   -1.8959   -2.1851    0.0000 C   0  0  0  0  0  0  0  0  0  0  0  0
   -1.9502   -1.3619    0.0000 C   0  0  0  0  0  0  0  0  0  0  0  0
   -2.6903   -0.9973    0.0000 O   0  0  0  0  0  0  0  0  0  0  0  0
   -1.2645   -0.9032    0.0000 O   0  0  0  0  0  0  0  0  0  0  0  0
   -1.3188   -0.0800    0.0000 C   0  0  0  0  0  0  0  0  0  0  0  0
   -0.6330    0.3786    0.0000 C   0  0  0  0  0  0  0  0  0  0  0  0
   -0.6873    1.2018    0.0000 C   0  0  2  0  0  0  0  0  0  0  0  0
   -1.5155    1.3931    0.0000 C   0  0  0  0  0  0  0  0  0  0  0  0
   -1.6472    2.2281    0.0000 C   0  0  0  0  0  0  0  0  0  0  0  0
   -0.9184    2.6668    0.0000 C   0  0  0  0  0  0  0  0  0  0  0  0
   -0.1009    2.3898    0.0000 C   0  0  2  0  0  0  0  0  0  0  0  0
    0.4631    3.0936    0.0000 C   0  0  0  0  0  0  0  0  0  0  0  0
    1.3545    3.2732    0.0000 C   0  0  0  0  0  0  0  0  0  0  0  0
    1.8898    2.5242    0.0000 C   0  0  1  0  0  0  0  0  0  0  0  0
    2.6908    2.7220    0.0000 C   0  0  0  0  0  0  0  0  0  0  0  0
    1.1144    2.6220    0.0000 O   0  0  0  0  0  0  0  0  0  0  0  0
    0.8067    1.9055    0.0000 O   0  0  0  0  0  0  0  0  0  0  0  0
    0.1198    1.5045    0.0000 C   0  0  1  0  0  0  0  0  0  0  0  0
    0.9853    1.2000    0.0000 C   0  0  1  0  0  0  0  0  0  0  0  0
    1.0523    0.3777    0.0000 O   0  0  0  0  0  0  0  0  0  0  0  0
    1.7980    0.0246    0.0000 C   0  0  0  0  0  0  0  0  0  0  0  0
    1.7669    1.6279    0.0000 O   0  0  0  0  0  0  0  0  0  0  0  0
   -1.1559   -2.5497    0.0000 C   0  0  0  0  0  0  0  0  0  0  0  0
   -1.1015   -3.3729    0.0000 C   0  0  0  0  0  0  0  0  0  0  0  0
   -0.7416    2.0250    0.0000 H   0  0  0  0  0  0  0  0  0  0  0  0
    0.7050    2.2133    0.0000 H   0  0  0  0  0  0  0  0  0  0  0  0
    1.7116    0.8086    0.0000 H   0  0  0  0  0  0  0  0  0  0  0  0
   -1.7618   -5.8968    0.0000 H   0  0  0  0  0  0  0  0  0  0  0  0
   -0.8843   -6.6657    0.0000 H   0  0  0  0  0  0  0  0  0  0  0  0
   -0.1154   -5.7882    0.0000 H   0  0  0  0  0  0  0  0  0  0  0  0
   -3.2132   -3.9256    0.0000 H   0  0  0  0  0  0  0  0  0  0  0  0
   -3.3218   -2.2792    0.0000 H   0  0  0  0  0  0  0  0  0  0  0  0
   -1.8165    0.5779    0.0000 H   0  0  0  0  0  0  0  0  0  0  0  0
   -2.1438   -0.0864    0.0000 H   0  0  0  0  0  0  0  0  0  0  0  0
   -0.1353   -0.2793    0.0000 H   0  0  0  0  0  0  0  0  0  0  0  0
    0.1920    0.3850    0.0000 H   0  0  0  0  0  0  0  0  0  0  0  0
   -2.3365    1.4744    0.0000 H   0  0  0  0  0  0  0  0  0  0  0  0
   -1.1236    0.6672    0.0000 H   0  0  0  0  0  0  0  0  0  0  0  0
   -2.1489    2.8830    0.0000 H   0  0  0  0  0  0  0  0  0  0  0  0
   -2.4714    2.1914    0.0000 H   0  0  0  0  0  0  0  0  0  0  0  0
   -0.6448    3.4451    0.0000 H   0  0  0  0  0  0  0  0  0  0  0  0
   -1.3518    3.3687    0.0000 H   0  0  0  0  0  0  0  0  0  0  0  0
    0.3639    3.9126    0.0000 H   0  0  0  0  0  0  0  0  0  0  0  0
   -0.2190    3.5576    0.0000 H   0  0  0  0  0  0  0  0  0  0  0  0
    1.9757    3.8161    0.0000 H   0  0  0  0  0  0  0  0  0  0  0  0
    1.2713    4.0940    0.0000 H   0  0  0  0  0  0  0  0  0  0  0  0
    2.8886    1.9210    0.0000 H   0  0  0  0  0  0  0  0  0  0  0  0
    3.4917    2.9198    0.0000 H   0  0  0  0  0  0  0  0  0  0  0  0
    2.4930    3.5229    0.0000 H   0  0  0  0  0  0  0  0  0  0  0  0
    1.2684   -0.6080    0.0000 H   0  0  0  0  0  0  0  0  0  0  0  0
    2.2767   -0.6472    0.0000 H   0  0  0  0  0  0  0  0  0  0  0  0
    2.5688    0.3187    0.0000 H   0  0  0  0  0  0  0  0  0  0  0  0
   -0.4701   -2.0910    0.0000 H   0  0  0  0  0  0  0  0  0  0  0  0
   -0.3615   -3.7374    0.0000 H   0  0  0  0  0  0  0  0  0  0  0  0
  1  2  1  0  0  0  0
  1 35  1  0  0  0  0
  1 36  1  0  0  0  0
  1 37  1  0  0  0  0
  2  3  1  0  0  0  0
  3  4  2  0  0  0  0
  3  5  1  0  0  0  0
  5  6  1  0  0  0  0
  5 31  2  0  0  0  0
  6  7  2  0  0  0  0
  6 38  1  0  0  0  0
  7  8  1  0  0  0  0
  7 39  1  0  0  0  0
  8  9  1  0  0  0  0
  8 30  2  0  0  0  0
  9 10  2  0  0  0  0
  9 11  1  0  0  0  0
 11 12  1  0  0  0  0
 12 13  1  0  0  0  0
 12 40  1  0  0  0  0
 12 41  1  0  0  0  0
 14 13  1  0  0  0  0
 13 42  1  0  0  0  0
 13 43  1  0  0  0  0
 14 32  1  1  0  0  0
 14 15  1  6  0  0  0
 25 14  1  0  0  0  0
 15 16  1  0  0  0  0
 15 44  1  0  0  0  0
 15 45  1  0  0  0  0
 16 17  1  0  0  0  0
 16 46  1  0  0  0  0
 16 47  1  0  0  0  0
 18 17  1  0  0  0  0
 17 48  1  0  0  0  0
 17 49  1  0  0  0  0
 18 33  1  1  0  0  0
 18 19  1  0  0  0  0
 25 18  1  0  0  0  0
 19 20  1  0  0  0  0
 19 50  1  0  0  0  0
 19 51  1  0  0  0  0
 21 20  1  0  0  0  0
 20 52  1  0  0  0  0
 20 53  1  0  0  0  0
 21 22  1  1  0  0  0
 21 23  1  0  0  0  0
 21 29  1  0  0  0  0
 22 54  1  0  0  0  0
 22 55  1  0  0  0  0
 22 56  1  0  0  0  0
 23 24  1  0  0  0  0
 25 24  1  1  0  0  0
 25 26  1  0  0  0  0
 26 34  1  1  0  0  0
 26 27  1  0  0  0  0
 26 29  1  0  0  0  0
 27 28  1  0  0  0  0
 28 57  1  0  0  0  0
 28 58  1  0  0  0  0
 28 59  1  0  0  0  0
 30 31  1  0  0  0  0
 30 60  1  0  0  0  0
 31 61  1  0  0  0  0
M  END
