
  Mrv171c004271813302D          

 55 58  0  0  0  0            999 V2000
   -0.7200   -2.9633    0.0000 C   0  0  0  0  0  0  0  0  0  0  0  0
   -0.6276   -2.1435    0.0000 C   0  0  0  0  0  0  0  0  0  0  0  0
    0.1286   -1.8136    0.0000 C   0  0  0  0  0  0  0  0  0  0  0  0
   -1.2913   -1.6535    0.0000 C   0  0  0  0  0  0  0  0  0  0  0  0
   -1.1989   -0.8337    0.0000 N   0  0  0  0  0  0  0  0  0  0  0  0
   -1.9086   -0.3802    0.0000 C   0  0  0  0  0  0  0  0  0  0  0  0
   -2.6935   -0.6343    0.0000 O   0  0  0  0  0  0  0  0  0  0  0  0
   -1.5968    0.4103    0.0000 C   0  0  2  0  0  0  0  0  0  0  0  0
   -2.1651    1.0083    0.0000 C   0  0  0  0  0  0  0  0  0  0  0  0
   -0.7809    0.6848    0.0000 C   0  0  2  0  0  0  0  0  0  0  0  0
   -0.8689    1.5259    0.0000 C   0  0  0  0  0  0  0  0  0  0  0  0
   -0.3185    2.1429    0.0000 C   0  0  0  0  0  0  0  0  0  0  0  0
    0.4152    1.7376    0.0000 C   0  0  1  0  0  0  0  0  0  0  0  0
    1.0936    2.2071    0.0000 C   0  0  0  0  0  0  0  0  0  0  0  0
    0.5389    0.8884    0.0000 C   0  0  2  0  0  0  0  0  0  0  0  0
    1.3972    0.8317    0.0000 C   0  0  0  0  0  0  0  0  0  0  0  0
    1.8813    0.1279    0.0000 C   0  0  0  0  0  0  0  0  0  0  0  0
    1.3775   -0.5719    0.0000 C   0  0  1  0  0  0  0  0  0  0  0  0
    2.0479   -1.0527    0.0000 C   0  0  0  0  0  0  0  0  0  0  0  0
    0.8777   -1.2716    0.0000 O   0  0  0  0  0  0  0  0  0  0  0  0
    0.2078   -0.7372    0.0000 O   0  0  0  0  0  0  0  0  0  0  0  0
   -0.0409    0.1937    0.0000 C   0  0  1  0  0  0  0  0  0  0  0  0
   -0.3706   -0.5368    0.0000 C   0  0  1  0  0  0  0  0  0  0  0  0
    0.5646   -0.2868    0.0000 O   0  0  0  0  0  0  0  0  0  0  0  0
   -1.0286   -0.1878    0.0000 H   0  0  0  0  0  0  0  0  0  0  0  0
    0.8637    0.1301    0.0000 H   0  0  0  0  0  0  0  0  0  0  0  0
   -1.5398   -2.8709    0.0000 H   0  0  0  0  0  0  0  0  0  0  0  0
   -0.8124   -3.7831    0.0000 H   0  0  0  0  0  0  0  0  0  0  0  0
    0.0998   -3.0557    0.0000 H   0  0  0  0  0  0  0  0  0  0  0  0
    0.0362   -2.6334    0.0000 H   0  0  0  0  0  0  0  0  0  0  0  0
    0.1030   -0.9890    0.0000 H   0  0  0  0  0  0  0  0  0  0  0  0
   -0.5685   -1.3724    0.0000 H   0  0  0  0  0  0  0  0  0  0  0  0
    0.8411   -2.2295    0.0000 H   0  0  0  0  0  0  0  0  0  0  0  0
   -2.1151   -1.6089    0.0000 H   0  0  0  0  0  0  0  0  0  0  0  0
   -1.8190   -2.2877    0.0000 H   0  0  0  0  0  0  0  0  0  0  0  0
   -1.5670    1.5766    0.0000 H   0  0  0  0  0  0  0  0  0  0  0  0
   -2.7333    1.6064    0.0000 H   0  0  0  0  0  0  0  0  0  0  0  0
   -2.7632    0.4401    0.0000 H   0  0  0  0  0  0  0  0  0  0  0  0
   -0.0752    1.1122    0.0000 H   0  0  0  0  0  0  0  0  0  0  0  0
   -1.1787    2.2905    0.0000 H   0  0  0  0  0  0  0  0  0  0  0  0
   -1.4430    0.9333    0.0000 H   0  0  0  0  0  0  0  0  0  0  0  0
    0.2277    2.7612    0.0000 H   0  0  0  0  0  0  0  0  0  0  0  0
   -0.3589    2.9669    0.0000 H   0  0  0  0  0  0  0  0  0  0  0  0
    1.1717    1.4084    0.0000 H   0  0  0  0  0  0  0  0  0  0  0  0
    1.9070    2.0689    0.0000 H   0  0  0  0  0  0  0  0  0  0  0  0
    1.4405    2.9556    0.0000 H   0  0  0  0  0  0  0  0  0  0  0  0
    0.4625    2.7383    0.0000 H   0  0  0  0  0  0  0  0  0  0  0  0
    2.2222    0.8336    0.0000 H   0  0  0  0  0  0  0  0  0  0  0  0
    1.8616    1.5136    0.0000 H   0  0  0  0  0  0  0  0  0  0  0  0
    2.3907   -0.5211    0.0000 H   0  0  0  0  0  0  0  0  0  0  0  0
    2.6946   -0.0105    0.0000 H   0  0  0  0  0  0  0  0  0  0  0  0
    1.3526   -1.4967    0.0000 H   0  0  0  0  0  0  0  0  0  0  0  0
    2.2021   -1.8631    0.0000 H   0  0  0  0  0  0  0  0  0  0  0  0
    2.8577   -1.2104    0.0000 H   0  0  0  0  0  0  0  0  0  0  0  0
   -0.6377    0.2438    0.0000 H   0  0  0  0  0  0  0  0  0  0  0  0
  1  2  1  0  0  0  0
  1 27  1  0  0  0  0
  1 28  1  0  0  0  0
  1 29  1  0  0  0  0
  2  3  1  0  0  0  0
  2  4  1  0  0  0  0
  2 30  1  0  0  0  0
  3 31  1  0  0  0  0
  3 32  1  0  0  0  0
  3 33  1  0  0  0  0
  4  5  1  0  0  0  0
  4 34  1  0  0  0  0
  4 35  1  0  0  0  0
  5  6  1  0  0  0  0
 23  5  1  0  0  0  0
  6  7  2  0  0  0  0
  8  6  1  6  0  0  0
  8 25  1  1  0  0  0
  8  9  1  0  0  0  0
 10  8  1  0  0  0  0
  9 36  1  0  0  0  0
  9 37  1  0  0  0  0
  9 38  1  0  0  0  0
 10 11  1  0  0  0  0
 22 10  1  0  0  0  0
 10 39  1  1  0  0  0
 11 12  1  0  0  0  0
 11 40  1  0  0  0  0
 11 41  1  0  0  0  0
 13 12  1  0  0  0  0
 12 42  1  0  0  0  0
 12 43  1  0  0  0  0
 13 14  1  1  0  0  0
 15 13  1  0  0  0  0
 13 44  1  6  0  0  0
 14 45  1  0  0  0  0
 14 46  1  0  0  0  0
 14 47  1  0  0  0  0
 15 26  1  1  0  0  0
 15 16  1  0  0  0  0
 22 15  1  0  0  0  0
 16 17  1  0  0  0  0
 16 48  1  0  0  0  0
 16 49  1  0  0  0  0
 18 17  1  0  0  0  0
 17 50  1  0  0  0  0
 17 51  1  0  0  0  0
 18 19  1  6  0  0  0
 18 20  1  0  0  0  0
 18 24  1  0  0  0  0
 19 52  1  0  0  0  0
 19 53  1  0  0  0  0
 19 54  1  0  0  0  0
 20 21  1  0  0  0  0
 22 21  1  1  0  0  0
 22 23  1  0  0  0  0
 23 24  1  0  0  0  0
 23 55  1  6  0  0  0
M  END
