
  Mrv171c004271813302D          

 53 57  0  0  0  0            999 V2000
   -1.0990    0.3783    0.0000 C   0  0  0  0  0  0  0  0  0  0  0  0
   -1.4108   -0.4121    0.0000 C   0  0  0  0  0  0  0  0  0  0  0  0
   -2.1957   -0.6663    0.0000 O   0  0  0  0  0  0  0  0  0  0  0  0
   -0.7011   -0.8656    0.0000 N   0  0  0  0  0  0  0  0  0  0  0  0
   -0.7935   -1.6854    0.0000 C   0  0  0  0  0  0  0  0  0  0  0  0
   -1.5497   -2.0153    0.0000 C   0  0  0  0  0  0  0  0  0  0  0  0
   -1.6421   -2.8351    0.0000 C   0  0  0  0  0  0  0  0  0  0  0  0
   -2.3983   -3.1650    0.0000 C   0  0  0  0  0  0  0  0  0  0  0  0
   -3.0621   -2.6751    0.0000 C   0  0  0  0  0  0  0  0  0  0  0  0
   -2.9697   -1.8553    0.0000 C   0  0  0  0  0  0  0  0  0  0  0  0
   -2.2135   -1.5254    0.0000 C   0  0  0  0  0  0  0  0  0  0  0  0
    0.1272   -0.5687    0.0000 C   0  0  2  0  0  0  0  0  0  0  0  0
    1.0624   -0.3187    0.0000 O   0  0  0  0  0  0  0  0  0  0  0  0
    1.8753   -0.6038    0.0000 C   0  0  1  0  0  0  0  0  0  0  0  0
    2.5457   -1.0846    0.0000 C   0  0  0  0  0  0  0  0  0  0  0  0
    2.3791    0.0960    0.0000 C   0  0  0  0  0  0  0  0  0  0  0  0
    1.8950    0.7998    0.0000 C   0  0  0  0  0  0  0  0  0  0  0  0
    1.0367    0.8565    0.0000 C   0  0  1  0  0  0  0  0  0  0  0  0
    0.9130    1.7057    0.0000 C   0  0  1  0  0  0  0  0  0  0  0  0
    1.5914    2.1751    0.0000 C   0  0  0  0  0  0  0  0  0  0  0  0
    0.1793    2.1110    0.0000 C   0  0  0  0  0  0  0  0  0  0  0  0
   -0.3711    1.4940    0.0000 C   0  0  0  0  0  0  0  0  0  0  0  0
   -0.2831    0.6529    0.0000 C   0  0  2  0  0  0  0  0  0  0  0  0
    0.4568    0.1618    0.0000 C   0  0  1  0  0  0  0  0  0  0  0  0
    0.7056   -0.7691    0.0000 O   0  0  0  0  0  0  0  0  0  0  0  0
    1.3755   -1.3035    0.0000 O   0  0  0  0  0  0  0  0  0  0  0  0
   -1.3539    1.1630    0.0000 H   0  0  0  0  0  0  0  0  0  0  0  0
   -1.8696    0.6730    0.0000 H   0  0  0  0  0  0  0  0  0  0  0  0
    0.2428    1.0809    0.0000 H   0  0  0  0  0  0  0  0  0  0  0  0
   -0.4203   -2.4212    0.0000 H   0  0  0  0  0  0  0  0  0  0  0  0
    0.0195   -1.8254    0.0000 H   0  0  0  0  0  0  0  0  0  0  0  0
   -0.9784   -3.3251    0.0000 H   0  0  0  0  0  0  0  0  0  0  0  0
   -2.4907   -3.9848    0.0000 H   0  0  0  0  0  0  0  0  0  0  0  0
   -3.8183   -3.0050    0.0000 H   0  0  0  0  0  0  0  0  0  0  0  0
   -3.6334   -1.3653    0.0000 H   0  0  0  0  0  0  0  0  0  0  0  0
   -1.4732   -1.1613    0.0000 H   0  0  0  0  0  0  0  0  0  0  0  0
    0.1316   -1.3937    0.0000 H   0  0  0  0  0  0  0  0  0  0  0  0
    2.0649   -1.7550    0.0000 H   0  0  0  0  0  0  0  0  0  0  0  0
    3.2161   -1.5654    0.0000 H   0  0  0  0  0  0  0  0  0  0  0  0
    3.0265   -0.4142    0.0000 H   0  0  0  0  0  0  0  0  0  0  0  0
    3.1721    0.3236    0.0000 H   0  0  0  0  0  0  0  0  0  0  0  0
    2.6577    0.8725    0.0000 H   0  0  0  0  0  0  0  0  0  0  0  0
    1.8830    1.6247    0.0000 H   0  0  0  0  0  0  0  0  0  0  0  0
    1.4871    0.0827    0.0000 H   0  0  0  0  0  0  0  0  0  0  0  0
    1.6695    1.3765    0.0000 H   0  0  0  0  0  0  0  0  0  0  0  0
    2.4101    2.2772    0.0000 H   0  0  0  0  0  0  0  0  0  0  0  0
    1.7868    2.9767    0.0000 H   0  0  0  0  0  0  0  0  0  0  0  0
    0.9116    2.6425    0.0000 H   0  0  0  0  0  0  0  0  0  0  0  0
   -0.1131    2.8824    0.0000 H   0  0  0  0  0  0  0  0  0  0  0  0
   -0.5589    2.4793    0.0000 H   0  0  0  0  0  0  0  0  0  0  0  0
   -0.9727    2.0585    0.0000 H   0  0  0  0  0  0  0  0  0  0  0  0
   -1.1892    1.3874    0.0000 H   0  0  0  0  0  0  0  0  0  0  0  0
   -0.3906   -0.1651    0.0000 H   0  0  0  0  0  0  0  0  0  0  0  0
  1 27  1  0  0  0  0
  1 28  1  0  0  0  0
  1  2  1  0  0  0  0
 23  1  1  0  0  0  0
  2  3  2  0  0  0  0
  2  4  1  0  0  0  0
  4  5  1  0  0  0  0
 12  4  1  0  0  0  0
  5  6  1  0  0  0  0
  5 30  1  0  0  0  0
  5 31  1  0  0  0  0
  6  7  1  0  0  0  0
  6 11  2  0  0  0  0
  7  8  2  0  0  0  0
  7 32  1  0  0  0  0
  8  9  1  0  0  0  0
  8 33  1  0  0  0  0
  9 10  2  0  0  0  0
  9 34  1  0  0  0  0
 10 11  1  0  0  0  0
 10 35  1  0  0  0  0
 11 36  1  0  0  0  0
 12 13  1  0  0  0  0
 24 12  1  0  0  0  0
 12 37  1  6  0  0  0
 14 13  1  0  0  0  0
 14 15  1  6  0  0  0
 14 16  1  0  0  0  0
 14 26  1  0  0  0  0
 15 38  1  0  0  0  0
 15 39  1  0  0  0  0
 15 40  1  0  0  0  0
 16 17  1  0  0  0  0
 16 41  1  0  0  0  0
 16 42  1  0  0  0  0
 18 17  1  0  0  0  0
 17 43  1  0  0  0  0
 17 44  1  0  0  0  0
 18 29  1  1  0  0  0
 18 19  1  0  0  0  0
 24 18  1  0  0  0  0
 19 20  1  6  0  0  0
 19 21  1  0  0  0  0
 19 45  1  1  0  0  0
 20 46  1  0  0  0  0
 20 47  1  0  0  0  0
 20 48  1  0  0  0  0
 21 22  1  0  0  0  0
 21 49  1  0  0  0  0
 21 50  1  0  0  0  0
 23 22  1  0  0  0  0
 22 51  1  0  0  0  0
 22 52  1  0  0  0  0
 24 23  1  0  0  0  0
 23 53  1  1  0  0  0
 24 25  1  1  0  0  0
 25 26  1  0  0  0  0
M  END
