
  Mrv171c004271813302D          

 59 62  0  0  0  0            999 V2000
   -0.7170   -0.2484    0.0000 C   0  0  0  0  0  0  0  0  0  0  0  0
   -1.3978    0.2177    0.0000 O   0  0  0  0  0  0  0  0  0  0  0  0
   -1.3346    1.0402    0.0000 C   0  0  1  0  0  0  0  0  0  0  0  0
   -2.0612    1.5695    0.0000 O   0  0  0  0  0  0  0  0  0  0  0  0
   -2.1782    2.4606    0.0000 C   0  0  1  0  0  0  0  0  0  0  0  0
   -2.9785    2.6612    0.0000 C   0  0  0  0  0  0  0  0  0  0  0  0
   -1.6574    3.1873    0.0000 C   0  0  0  0  0  0  0  0  0  0  0  0
   -0.7737    3.0931    0.0000 C   0  0  0  0  0  0  0  0  0  0  0  0
   -0.2828    2.3409    0.0000 C   0  0  1  0  0  0  0  0  0  0  0  0
    0.5007    2.7007    0.0000 C   0  0  0  0  0  0  0  0  0  0  0  0
    1.0738    2.0904    0.0000 C   0  0  0  0  0  0  0  0  0  0  0  0
    0.9130    1.2655    0.0000 C   0  0  0  0  0  0  0  0  0  0  0  0
    0.1475    0.9241    0.0000 C   0  0  1  0  0  0  0  0  0  0  0  0
    0.0428    0.1058    0.0000 C   0  0  0  0  0  0  0  0  0  0  0  0
    0.6992   -0.3940    0.0000 C   0  0  0  0  0  0  0  0  0  0  0  0
    0.5945   -1.2124    0.0000 O   0  0  0  0  0  0  0  0  0  0  0  0
    1.2509   -1.7122    0.0000 C   0  0  0  0  0  0  0  0  0  0  0  0
    1.1462   -2.5305    0.0000 C   0  0  0  0  0  0  0  0  0  0  0  0
    1.8026   -3.0303    0.0000 C   0  0  0  0  0  0  0  0  0  0  0  0
    1.6979   -3.8486    0.0000 C   0  0  0  0  0  0  0  0  0  0  0  0
    0.9369   -4.1672    0.0000 N   0  0  0  0  0  0  0  0  0  0  0  0
    0.8322   -4.9855    0.0000 C   0  0  0  0  0  0  0  0  0  0  0  0
    0.2805   -3.6674    0.0000 C   0  0  0  0  0  0  0  0  0  0  0  0
    0.3852   -2.8490    0.0000 C   0  0  0  0  0  0  0  0  0  0  0  0
   -0.5224    1.4592    0.0000 C   0  0  1  0  0  0  0  0  0  0  0  0
   -1.2535    1.7423    0.0000 O   0  0  0  0  0  0  0  0  0  0  0  0
   -1.3844    2.5090    0.0000 O   0  0  0  0  0  0  0  0  0  0  0  0
   -0.6470    0.5842    0.0000 H   0  0  0  0  0  0  0  0  0  0  0  0
   -1.0978    2.2124    0.0000 H   0  0  0  0  0  0  0  0  0  0  0  0
    0.8096    0.4319    0.0000 H   0  0  0  0  0  0  0  0  0  0  0  0
   -1.4619   -0.6029    0.0000 H   0  0  0  0  0  0  0  0  0  0  0  0
   -0.7846   -1.0706    0.0000 H   0  0  0  0  0  0  0  0  0  0  0  0
   -0.0400   -0.7199    0.0000 H   0  0  0  0  0  0  0  0  0  0  0  0
   -2.7778    3.4615    0.0000 H   0  0  0  0  0  0  0  0  0  0  0  0
   -3.7787    2.8619    0.0000 H   0  0  0  0  0  0  0  0  0  0  0  0
   -3.1791    1.8610    0.0000 H   0  0  0  0  0  0  0  0  0  0  0  0
   -1.6203    4.0114    0.0000 H   0  0  0  0  0  0  0  0  0  0  0  0
   -2.2972    3.7080    0.0000 H   0  0  0  0  0  0  0  0  0  0  0  0
   -0.0808    3.5409    0.0000 H   0  0  0  0  0  0  0  0  0  0  0  0
   -0.6898    3.9138    0.0000 H   0  0  0  0  0  0  0  0  0  0  0  0
    1.0200    3.3418    0.0000 H   0  0  0  0  0  0  0  0  0  0  0  0
    0.2613    3.4902    0.0000 H   0  0  0  0  0  0  0  0  0  0  0  0
    1.8864    1.9479    0.0000 H   0  0  0  0  0  0  0  0  0  0  0  0
    1.6859    2.6436    0.0000 H   0  0  0  0  0  0  0  0  0  0  0  0
    1.2668    0.5203    0.0000 H   0  0  0  0  0  0  0  0  0  0  0  0
    1.7187    1.0885    0.0000 H   0  0  0  0  0  0  0  0  0  0  0  0
   -0.2925    0.8596    0.0000 H   0  0  0  0  0  0  0  0  0  0  0  0
   -0.7792    0.1759    0.0000 H   0  0  0  0  0  0  0  0  0  0  0  0
    1.3546   -0.8951    0.0000 H   0  0  0  0  0  0  0  0  0  0  0  0
    1.4614   -0.0784    0.0000 H   0  0  0  0  0  0  0  0  0  0  0  0
    1.9842   -2.0901    0.0000 H   0  0  0  0  0  0  0  0  0  0  0  0
    2.0556   -1.5302    0.0000 H   0  0  0  0  0  0  0  0  0  0  0  0
    2.6172   -3.1610    0.0000 H   0  0  0  0  0  0  0  0  0  0  0  0
    2.3543   -4.3485    0.0000 H   0  0  0  0  0  0  0  0  0  0  0  0
    0.0139   -4.8808    0.0000 H   0  0  0  0  0  0  0  0  0  0  0  0
    0.7276   -5.8038    0.0000 H   0  0  0  0  0  0  0  0  0  0  0  0
    1.6506   -5.0902    0.0000 H   0  0  0  0  0  0  0  0  0  0  0  0
   -0.4805   -3.9859    0.0000 H   0  0  0  0  0  0  0  0  0  0  0  0
   -0.2712   -2.3492    0.0000 H   0  0  0  0  0  0  0  0  0  0  0  0
  1  2  1  0  0  0  0
  1 31  1  0  0  0  0
  1 32  1  0  0  0  0
  1 33  1  0  0  0  0
  3  2  1  0  0  0  0
  3 28  1  6  0  0  0
  3  4  1  0  0  0  0
 25  3  1  0  0  0  0
  5  4  1  0  0  0  0
  5  6  1  6  0  0  0
  5  7  1  0  0  0  0
  5 27  1  0  0  0  0
  6 34  1  0  0  0  0
  6 35  1  0  0  0  0
  6 36  1  0  0  0  0
  7  8  1  0  0  0  0
  7 37  1  0  0  0  0
  7 38  1  0  0  0  0
  9  8  1  0  0  0  0
  8 39  1  0  0  0  0
  8 40  1  0  0  0  0
  9 29  1  6  0  0  0
  9 10  1  0  0  0  0
 25  9  1  0  0  0  0
 10 11  1  0  0  0  0
 10 41  1  0  0  0  0
 10 42  1  0  0  0  0
 11 12  1  0  0  0  0
 11 43  1  0  0  0  0
 11 44  1  0  0  0  0
 13 12  1  0  0  0  0
 12 45  1  0  0  0  0
 12 46  1  0  0  0  0
 13 30  1  6  0  0  0
 13 14  1  0  0  0  0
 25 13  1  0  0  0  0
 14 15  1  0  0  0  0
 14 47  1  0  0  0  0
 14 48  1  0  0  0  0
 15 16  1  0  0  0  0
 15 49  1  0  0  0  0
 15 50  1  0  0  0  0
 16 17  1  0  0  0  0
 17 18  1  0  0  0  0
 17 51  1  0  0  0  0
 17 52  1  0  0  0  0
 18 19  1  0  0  0  0
 18 24  2  0  0  0  0
 19 20  2  0  0  0  0
 19 53  1  0  0  0  0
 20 21  1  0  0  0  0
 20 54  1  0  0  0  0
 21 22  1  0  0  0  0
 21 23  2  0  0  0  0
 22 55  1  0  0  0  0
 22 56  1  0  0  0  0
 22 57  1  0  0  0  0
 23 24  1  0  0  0  0
 23 58  1  0  0  0  0
 24 59  1  0  0  0  0
 25 26  1  6  0  0  0
 26 27  1  0  0  0  0
M  END
