
  Mrv171c004271813302D          

 48 51  0  0  0  0            999 V2000
   -3.4879    0.8284    0.0000 C   0  0  0  0  0  0  0  0  0  0  0  0
   -2.7055    0.5670    0.0000 C   0  0  0  0  0  0  0  0  0  0  0  0
   -2.0878    1.1139    0.0000 O   0  0  0  0  0  0  0  0  0  0  0  0
   -1.3053    0.8524    0.0000 C   0  0  1  0  0  0  0  0  0  0  0  0
   -0.6002    1.3100    0.0000 O   0  0  0  0  0  0  0  0  0  0  0  0
    0.2147    1.0394    0.0000 C   0  0  2  0  0  0  0  0  0  0  0  0
    1.1473    0.8187    0.0000 O   0  0  0  0  0  0  0  0  0  0  0  0
    1.9794    1.0317    0.0000 C   0  0  1  0  0  0  0  0  0  0  0  0
    2.6648    1.4908    0.0000 C   0  0  0  0  0  0  0  0  0  0  0  0
    2.4651    0.3339    0.0000 C   0  0  0  0  0  0  0  0  0  0  0  0
    1.9763   -0.3551    0.0000 C   0  0  0  0  0  0  0  0  0  0  0  0
    1.1189   -0.3663    0.0000 C   0  0  1  0  0  0  0  0  0  0  0  0
    1.0024   -1.2136    0.0000 C   0  0  0  0  0  0  0  0  0  0  0  0
    1.6909   -1.6682    0.0000 C   0  0  0  0  0  0  0  0  0  0  0  0
    0.2832   -1.6448    0.0000 C   0  0  0  0  0  0  0  0  0  0  0  0
    0.1630   -2.4610    0.0000 F   0  0  0  0  0  0  0  0  0  0  0  0
   -0.2803   -1.0253    0.0000 C   0  0  0  0  0  0  0  0  0  0  0  0
   -0.1841   -0.1704    0.0000 C   0  0  1  0  0  0  0  0  0  0  0  0
   -1.0168    0.0623    0.0000 C   0  0  1  0  0  0  0  0  0  0  0  0
   -1.5770   -0.5433    0.0000 C   0  0  0  0  0  0  0  0  0  0  0  0
    0.5582    0.3291    0.0000 C   0  0  1  0  0  0  0  0  0  0  0  0
    0.7968    1.2799    0.0000 O   0  0  0  0  0  0  0  0  0  0  0  0
    1.5230    1.7403    0.0000 O   0  0  0  0  0  0  0  0  0  0  0  0
   -1.8806    0.2610    0.0000 H   0  0  0  0  0  0  0  0  0  0  0  0
    1.4700    0.3802    0.0000 H   0  0  0  0  0  0  0  0  0  0  0  0
   -0.7921   -0.7315    0.0000 H   0  0  0  0  0  0  0  0  0  0  0  0
   -3.2265    1.6109    0.0000 H   0  0  0  0  0  0  0  0  0  0  0  0
   -4.2704    1.0899    0.0000 H   0  0  0  0  0  0  0  0  0  0  0  0
   -3.7494    0.0460    0.0000 H   0  0  0  0  0  0  0  0  0  0  0  0
   -2.9210   -0.2294    0.0000 H   0  0  0  0  0  0  0  0  0  0  0  0
   -2.1954   -0.0815    0.0000 H   0  0  0  0  0  0  0  0  0  0  0  0
    0.1853    1.8639    0.0000 H   0  0  0  0  0  0  0  0  0  0  0  0
    3.1239    0.8053    0.0000 H   0  0  0  0  0  0  0  0  0  0  0  0
    3.3503    1.9499    0.0000 H   0  0  0  0  0  0  0  0  0  0  0  0
    2.2057    2.1762    0.0000 H   0  0  0  0  0  0  0  0  0  0  0  0
    2.7241   -0.4494    0.0000 H   0  0  0  0  0  0  0  0  0  0  0  0
    3.2495    0.0781    0.0000 H   0  0  0  0  0  0  0  0  0  0  0  0
    1.5404   -1.0556    0.0000 H   0  0  0  0  0  0  0  0  0  0  0  0
    2.3310   -1.1000    0.0000 H   0  0  0  0  0  0  0  0  0  0  0  0
    0.9787   -2.0847    0.0000 H   0  0  0  0  0  0  0  0  0  0  0  0
    1.7495   -2.4912    0.0000 H   0  0  0  0  0  0  0  0  0  0  0  0
    2.4549   -1.9795    0.0000 H   0  0  0  0  0  0  0  0  0  0  0  0
   -1.0983   -0.9180    0.0000 H   0  0  0  0  0  0  0  0  0  0  0  0
   -0.8802   -1.5916    0.0000 H   0  0  0  0  0  0  0  0  0  0  0  0
   -0.3155    0.6441    0.0000 H   0  0  0  0  0  0  0  0  0  0  0  0
   -2.3942   -0.6570    0.0000 H   0  0  0  0  0  0  0  0  0  0  0  0
   -2.0781   -1.1987    0.0000 H   0  0  0  0  0  0  0  0  0  0  0  0
   -1.4726   -1.3616    0.0000 H   0  0  0  0  0  0  0  0  0  0  0  0
  1  2  1  0  0  0  0
  1 27  1  0  0  0  0
  1 28  1  0  0  0  0
  1 29  1  0  0  0  0
  2  3  1  0  0  0  0
  2 30  1  0  0  0  0
  2 31  1  0  0  0  0
  4  3  1  1  0  0  0
  4 24  1  6  0  0  0
  4  5  1  0  0  0  0
 19  4  1  0  0  0  0
  6  5  1  0  0  0  0
  6  7  1  0  0  0  0
 21  6  1  0  0  0  0
  6 32  1  1  0  0  0
  8  7  1  0  0  0  0
  8  9  1  1  0  0  0
  8 10  1  0  0  0  0
  8 23  1  0  0  0  0
  9 33  1  0  0  0  0
  9 34  1  0  0  0  0
  9 35  1  0  0  0  0
 10 11  1  0  0  0  0
 10 36  1  0  0  0  0
 10 37  1  0  0  0  0
 12 11  1  0  0  0  0
 11 38  1  0  0  0  0
 11 39  1  0  0  0  0
 12 25  1  6  0  0  0
 12 13  1  0  0  0  0
 21 12  1  0  0  0  0
 13 14  1  0  0  0  0
 13 15  2  0  0  0  0
 14 40  1  0  0  0  0
 14 41  1  0  0  0  0
 14 42  1  0  0  0  0
 15 16  1  0  0  0  0
 15 17  1  0  0  0  0
 18 17  1  0  0  0  0
 17 43  1  0  0  0  0
 17 44  1  0  0  0  0
 18 19  1  0  0  0  0
 21 18  1  0  0  0  0
 18 45  1  6  0  0  0
 19 26  1  6  0  0  0
 19 20  1  1  0  0  0
 20 46  1  0  0  0  0
 20 47  1  0  0  0  0
 20 48  1  0  0  0  0
 21 22  1  6  0  0  0
 22 23  1  0  0  0  0
M  END
