
  Mrv171c004271813302D          

 66 70  0  0  0  0            999 V2000
    1.2158    1.3847    0.0000 C   0  0  0  0  0  0  0  0  0  0  0  0
    0.6654    0.7677    0.0000 C   0  0  0  0  0  0  0  0  0  0  0  0
    0.7534   -0.0734    0.0000 C   0  0  1  0  0  0  0  0  0  0  0  0
   -0.0625   -0.3479    0.0000 C   0  0  1  0  0  0  0  0  0  0  0  0
   -0.4181    0.3965    0.0000 C   0  0  0  0  0  0  0  0  0  0  0  0
   -0.3743   -1.1383    0.0000 C   0  0  1  0  0  0  0  0  0  0  0  0
   -1.1592   -1.3925    0.0000 O   0  0  0  0  0  0  0  0  0  0  0  0
   -1.7717   -0.8399    0.0000 C   0  0  2  0  0  0  0  0  0  0  0  0
   -2.5566   -1.0941    0.0000 C   0  0  0  0  0  0  0  0  0  0  0  0
   -2.7289   -1.9009    0.0000 C   0  0  0  0  0  0  0  0  0  0  0  0
   -2.1163   -2.4535    0.0000 O   0  0  0  0  0  0  0  0  0  0  0  0
   -3.5137   -2.1551    0.0000 O   0  0  0  0  0  0  0  0  0  0  0  0
   -1.5994   -0.0331    0.0000 C   0  0  0  0  0  0  0  0  0  0  0  0
   -2.2120    0.5195    0.0000 C   0  0  0  0  0  0  0  0  0  0  0  0
   -2.0397    1.3263    0.0000 C   0  0  0  0  0  0  0  0  0  0  0  0
   -1.2548    1.5805    0.0000 C   0  0  0  0  0  0  0  0  0  0  0  0
   -1.0825    2.3873    0.0000 N   0  0  0  0  0  0  0  0  0  0  0  0
   -0.2976    2.6415    0.0000 O   0  0  0  0  0  0  0  0  0  0  0  0
   -1.6951    2.9399    0.0000 O   0  0  0  0  0  0  0  0  0  0  0  0
   -0.6422    1.0279    0.0000 C   0  0  0  0  0  0  0  0  0  0  0  0
   -0.8145    0.2211    0.0000 C   0  0  0  0  0  0  0  0  0  0  0  0
    0.3354   -1.5919    0.0000 O   0  0  0  0  0  0  0  0  0  0  0  0
    1.1637   -1.2950    0.0000 C   0  0  2  0  0  0  0  0  0  0  0  0
    2.0990   -1.0449    0.0000 O   0  0  0  0  0  0  0  0  0  0  0  0
    2.9118   -1.3301    0.0000 C   0  0  1  0  0  0  0  0  0  0  0  0
    3.5822   -1.8109    0.0000 C   0  0  0  0  0  0  0  0  0  0  0  0
    3.4157   -0.6303    0.0000 C   0  0  0  0  0  0  0  0  0  0  0  0
    2.9315    0.0735    0.0000 C   0  0  0  0  0  0  0  0  0  0  0  0
    2.0732    0.1303    0.0000 C   0  0  1  0  0  0  0  0  0  0  0  0
    1.9495    0.9794    0.0000 C   0  0  1  0  0  0  0  0  0  0  0  0
    2.6279    1.4489    0.0000 C   0  0  0  0  0  0  0  0  0  0  0  0
    1.4934   -0.5644    0.0000 C   0  0  1  0  0  0  0  0  0  0  0  0
    1.7421   -1.4953    0.0000 O   0  0  0  0  0  0  0  0  0  0  0  0
    2.4120   -2.0298    0.0000 O   0  0  0  0  0  0  0  0  0  0  0  0
    1.4831    2.1652    0.0000 H   0  0  0  0  0  0  0  0  0  0  0  0
    0.7051    2.0326    0.0000 H   0  0  0  0  0  0  0  0  0  0  0  0
    0.2590    0.4118    0.0000 H   0  0  0  0  0  0  0  0  0  0  0  0
   -0.4794   -1.9566    0.0000 H   0  0  0  0  0  0  0  0  0  0  0  0
   -1.9440   -1.6467    0.0000 H   0  0  0  0  0  0  0  0  0  0  0  0
    1.1681   -2.1200    0.0000 H   0  0  0  0  0  0  0  0  0  0  0  0
    1.2793    0.3546    0.0000 H   0  0  0  0  0  0  0  0  0  0  0  0
    0.0638    1.3322    0.0000 H   0  0  0  0  0  0  0  0  0  0  0  0
   -0.1527    0.6611    0.0000 H   0  0  0  0  0  0  0  0  0  0  0  0
    0.6459   -0.8914    0.0000 H   0  0  0  0  0  0  0  0  0  0  0  0
   -0.8981   -0.2745    0.0000 H   0  0  0  0  0  0  0  0  0  0  0  0
   -0.4903   -0.4254    0.0000 H   0  0  0  0  0  0  0  0  0  0  0  0
   -0.2358    1.2011    0.0000 H   0  0  0  0  0  0  0  0  0  0  0  0
   -2.8560   -0.3253    0.0000 H   0  0  0  0  0  0  0  0  0  0  0  0
   -3.3520   -0.8752    0.0000 H   0  0  0  0  0  0  0  0  0  0  0  0
   -4.1263   -1.6025    0.0000 H   0  0  0  0  0  0  0  0  0  0  0  0
   -2.9968    0.2653    0.0000 H   0  0  0  0  0  0  0  0  0  0  0  0
   -2.6522    1.8789    0.0000 H   0  0  0  0  0  0  0  0  0  0  0  0
   -1.5228    3.7467    0.0000 H   0  0  0  0  0  0  0  0  0  0  0  0
   -1.4271    0.7737    0.0000 H   0  0  0  0  0  0  0  0  0  0  0  0
   -1.3538   -0.4033    0.0000 H   0  0  0  0  0  0  0  0  0  0  0  0
    3.1015   -2.4813    0.0000 H   0  0  0  0  0  0  0  0  0  0  0  0
    4.2527   -2.2917    0.0000 H   0  0  0  0  0  0  0  0  0  0  0  0
    4.0630   -1.1404    0.0000 H   0  0  0  0  0  0  0  0  0  0  0  0
    4.2086   -0.4027    0.0000 H   0  0  0  0  0  0  0  0  0  0  0  0
    3.6942    0.1462    0.0000 H   0  0  0  0  0  0  0  0  0  0  0  0
    2.9195    0.8984    0.0000 H   0  0  0  0  0  0  0  0  0  0  0  0
    2.5237   -0.6436    0.0000 H   0  0  0  0  0  0  0  0  0  0  0  0
    1.9080    1.8033    0.0000 H   0  0  0  0  0  0  0  0  0  0  0  0
    3.4447    1.3324    0.0000 H   0  0  0  0  0  0  0  0  0  0  0  0
    3.2026    2.0408    0.0000 H   0  0  0  0  0  0  0  0  0  0  0  0
    2.4873    2.2618    0.0000 H   0  0  0  0  0  0  0  0  0  0  0  0
  1 35  1  0  0  0  0
  1 36  1  0  0  0  0
  1  2  1  0  0  0  0
 30  1  1  0  0  0  0
  3  2  1  0  0  0  0
  2 42  1  0  0  0  0
  2 43  1  0  0  0  0
  3  4  1  0  0  0  0
 32  3  1  0  0  0  0
  3 44  1  1  0  0  0
  4 37  1  1  0  0  0
  4  5  1  6  0  0  0
  4  6  1  0  0  0  0
  5 45  1  0  0  0  0
  5 46  1  0  0  0  0
  5 47  1  0  0  0  0
  6 38  1  1  0  0  0
  6  7  1  6  0  0  0
  6 22  1  0  0  0  0
  8  7  1  0  0  0  0
  8 39  1  1  0  0  0
  8  9  1  0  0  0  0
  8 13  1  0  0  0  0
  9 10  1  0  0  0  0
  9 48  1  0  0  0  0
  9 49  1  0  0  0  0
 10 11  2  0  0  0  0
 10 12  1  0  0  0  0
 12 50  1  0  0  0  0
 13 14  1  0  0  0  0
 13 21  2  0  0  0  0
 14 15  2  0  0  0  0
 14 51  1  0  0  0  0
 15 16  1  0  0  0  0
 15 52  1  0  0  0  0
 16 17  1  0  0  0  0
 16 20  2  0  0  0  0
 17 18  2  0  0  0  0
 17 19  1  0  0  0  0
 19 53  1  0  0  0  0
 20 21  1  0  0  0  0
 20 54  1  0  0  0  0
 21 55  1  0  0  0  0
 23 22  1  0  0  0  0
 23 40  1  6  0  0  0
 23 24  1  0  0  0  0
 32 23  1  0  0  0  0
 25 24  1  0  0  0  0
 25 26  1  6  0  0  0
 25 27  1  0  0  0  0
 25 34  1  0  0  0  0
 26 56  1  0  0  0  0
 26 57  1  0  0  0  0
 26 58  1  0  0  0  0
 27 28  1  0  0  0  0
 27 59  1  0  0  0  0
 27 60  1  0  0  0  0
 29 28  1  0  0  0  0
 28 61  1  0  0  0  0
 28 62  1  0  0  0  0
 29 41  1  1  0  0  0
 29 30  1  0  0  0  0
 32 29  1  0  0  0  0
 30 31  1  6  0  0  0
 30 63  1  1  0  0  0
 31 64  1  0  0  0  0
 31 65  1  0  0  0  0
 31 66  1  0  0  0  0
 32 33  1  1  0  0  0
 33 34  1  0  0  0  0
M  END
