
  Mrv171c004271813302D          

 35 37  0  0  0  0            999 V2000
   -0.7030    1.4861    0.0000 C   0  0  0  0  0  0  0  0  0  0  0  0
   -1.5052    1.1659    0.0000 C   0  0  0  0  0  0  0  0  0  0  0  0
   -1.6280    0.3299    0.0000 C   0  0  0  0  0  0  0  0  0  0  0  0
   -0.9461   -0.1703    0.0000 C   0  0  1  0  0  0  0  0  0  0  0  0
   -1.0405   -0.9899    0.0000 C   0  0  0  0  0  0  0  0  0  0  0  0
   -0.1482    0.1703    0.0000 C   0  0  2  0  0  0  0  0  0  0  0  0
    0.3897   -0.5501    0.0000 C   0  0  0  0  0  0  0  0  0  0  0  0
    1.2811   -0.7098    0.0000 C   0  0  0  0  0  0  0  0  0  0  0  0
    1.7836    0.0427    0.0000 C   0  0  1  0  0  0  0  0  0  0  0  0
    2.5828   -0.1620    0.0000 C   0  0  0  0  0  0  0  0  0  0  0  0
    1.7066    0.9210    0.0000 O   0  0  0  0  0  0  0  0  0  0  0  0
    0.9300    1.3644    0.0000 O   0  0  0  0  0  0  0  0  0  0  0  0
    0.0630    1.0658    0.0000 C   0  0  1  0  0  0  0  0  0  0  0  0
    0.7695    0.6979    0.0000 C   0  0  0  0  0  0  0  0  0  0  0  0
    0.9960   -0.0440    0.0000 O   0  0  0  0  0  0  0  0  0  0  0  0
   -0.3016    2.2069    0.0000 H   0  0  0  0  0  0  0  0  0  0  0  0
   -1.0136    2.2504    0.0000 H   0  0  0  0  0  0  0  0  0  0  0  0
    0.6595    0.3381    0.0000 H   0  0  0  0  0  0  0  0  0  0  0  0
    1.4853    0.2877    0.0000 H   0  0  0  0  0  0  0  0  0  0  0  0
    0.0087    0.3789    0.0000 H   0  0  0  0  0  0  0  0  0  0  0  0
   -1.8545    1.9133    0.0000 H   0  0  0  0  0  0  0  0  0  0  0  0
   -2.3132    1.3324    0.0000 H   0  0  0  0  0  0  0  0  0  0  0  0
   -2.4508    0.3905    0.0000 H   0  0  0  0  0  0  0  0  0  0  0  0
   -2.1628   -0.2982    0.0000 H   0  0  0  0  0  0  0  0  0  0  0  0
   -0.2848   -0.6637    0.0000 H   0  0  0  0  0  0  0  0  0  0  0  0
   -1.8076   -0.6863    0.0000 H   0  0  0  0  0  0  0  0  0  0  0  0
   -1.5325   -1.6521    0.0000 H   0  0  0  0  0  0  0  0  0  0  0  0
   -0.5284   -1.6367    0.0000 H   0  0  0  0  0  0  0  0  0  0  0  0
    0.0149   -1.2851    0.0000 H   0  0  0  0  0  0  0  0  0  0  0  0
    0.7567   -1.2890    0.0000 H   0  0  0  0  0  0  0  0  0  0  0  0
    1.7075   -1.4161    0.0000 H   0  0  0  0  0  0  0  0  0  0  0  0
    2.0700   -0.9512    0.0000 H   0  0  0  0  0  0  0  0  0  0  0  0
    3.1036   -0.8018    0.0000 H   0  0  0  0  0  0  0  0  0  0  0  0
    3.3514    0.1378    0.0000 H   0  0  0  0  0  0  0  0  0  0  0  0
    2.5328    0.6615    0.0000 H   0  0  0  0  0  0  0  0  0  0  0  0
  1 16  1  0  0  0  0
  1 17  1  0  0  0  0
  1  2  1  0  0  0  0
 13  1  1  0  0  0  0
  2  3  1  0  0  0  0
  2 21  1  0  0  0  0
  2 22  1  0  0  0  0
  4  3  1  0  0  0  0
  3 23  1  0  0  0  0
  3 24  1  0  0  0  0
  4  5  1  0  0  0  0
  6  4  1  0  0  0  0
  4 25  1  1  0  0  0
  5 26  1  0  0  0  0
  5 27  1  0  0  0  0
  5 28  1  0  0  0  0
  6 18  1  6  0  0  0
  6  7  1  0  0  0  0
  6 13  1  0  0  0  0
  7  8  1  0  0  0  0
  7 29  1  0  0  0  0
  7 30  1  0  0  0  0
  9  8  1  0  0  0  0
  8 31  1  0  0  0  0
  8 32  1  0  0  0  0
  9 10  1  1  0  0  0
  9 11  1  0  0  0  0
  9 15  1  0  0  0  0
 10 33  1  0  0  0  0
 10 34  1  0  0  0  0
 10 35  1  0  0  0  0
 11 12  1  0  0  0  0
 13 12  1  6  0  0  0
 13 14  1  0  0  0  0
 14 19  1  0  0  0  0
 14 20  1  0  0  0  0
 14 15  1  0  0  0  0
M  END
