
  Mrv171c004271813302D          

 48 52  0  0  0  0            999 V2000
   -0.0965   -1.0379    0.0000 C   0  0  1  0  0  0  0  0  0  0  0  0
    0.6968   -1.4184    0.0000 O   0  0  0  0  0  0  0  0  0  0  0  0
    1.4494   -1.0403    0.0000 C   0  0  2  0  0  0  0  0  0  0  0  0
    2.2486   -1.2452    0.0000 O   0  0  0  0  0  0  0  0  0  0  0  0
    2.8256   -0.6555    0.0000 C   0  0  0  0  0  0  0  0  0  0  0  0
    2.6034    0.1390    0.0000 C   0  0  0  0  0  0  0  0  0  0  0  0
    1.8043    0.3439    0.0000 C   0  0  0  0  0  0  0  0  0  0  0  0
    1.2273   -0.2458    0.0000 C   0  0  2  0  0  0  0  0  0  0  0  0
    0.4373    0.1350    0.0000 C   0  0  2  0  0  0  0  0  0  0  0  0
    0.6114    0.9626    0.0000 C   0  0  0  0  0  0  0  0  0  0  0  0
    0.1273    1.6330    0.0000 C   0  0  0  0  0  0  0  0  0  0  0  0
   -0.6442    1.3053    0.0000 C   0  0  1  0  0  0  0  0  0  0  0  0
   -1.2707    1.8421    0.0000 C   0  0  0  0  0  0  0  0  0  0  0  0
   -0.8546    0.4734    0.0000 C   0  0  2  0  0  0  0  0  0  0  0  0
   -1.7142    0.5053    0.0000 C   0  0  0  0  0  0  0  0  0  0  0  0
   -2.2682   -0.1450    0.0000 C   0  0  0  0  0  0  0  0  0  0  0  0
   -1.8390   -0.8929    0.0000 C   0  0  2  0  0  0  0  0  0  0  0  0
   -2.5553   -1.3022    0.0000 C   0  0  0  0  0  0  0  0  0  0  0  0
   -1.4138   -1.6403    0.0000 O   0  0  0  0  0  0  0  0  0  0  0  0
   -0.6925   -1.1777    0.0000 O   0  0  0  0  0  0  0  0  0  0  0  0
   -0.3493   -0.2773    0.0000 C   0  0  1  0  0  0  0  0  0  0  0  0
   -1.0011   -0.6929    0.0000 O   0  0  0  0  0  0  0  0  0  0  0  0
   -0.1858   -1.8580    0.0000 H   0  0  0  0  0  0  0  0  0  0  0  0
    1.5378   -1.8606    0.0000 H   0  0  0  0  0  0  0  0  0  0  0  0
    0.5947   -0.7755    0.0000 H   0  0  0  0  0  0  0  0  0  0  0  0
   -0.2207    0.6328    0.0000 H   0  0  0  0  0  0  0  0  0  0  0  0
   -1.2557   -0.2476    0.0000 H   0  0  0  0  0  0  0  0  0  0  0  0
    3.4478   -1.1973    0.0000 H   0  0  0  0  0  0  0  0  0  0  0  0
    3.6317   -0.4800    0.0000 H   0  0  0  0  0  0  0  0  0  0  0  0
    3.3837    0.4070    0.0000 H   0  0  0  0  0  0  0  0  0  0  0  0
    2.8544    0.9249    0.0000 H   0  0  0  0  0  0  0  0  0  0  0  0
    1.9623    1.1536    0.0000 H   0  0  0  0  0  0  0  0  0  0  0  0
    1.2492    0.9542    0.0000 H   0  0  0  0  0  0  0  0  0  0  0  0
    0.9918    1.6946    0.0000 H   0  0  0  0  0  0  0  0  0  0  0  0
    1.1270    0.3186    0.0000 H   0  0  0  0  0  0  0  0  0  0  0  0
    0.2501    2.4488    0.0000 H   0  0  0  0  0  0  0  0  0  0  0  0
   -0.3535    2.3034    0.0000 H   0  0  0  0  0  0  0  0  0  0  0  0
   -1.4305    1.0557    0.0000 H   0  0  0  0  0  0  0  0  0  0  0  0
   -0.5882    2.3056    0.0000 H   0  0  0  0  0  0  0  0  0  0  0  0
   -1.5387    2.6223    0.0000 H   0  0  0  0  0  0  0  0  0  0  0  0
   -2.0939    1.7883    0.0000 H   0  0  0  0  0  0  0  0  0  0  0  0
   -2.1059    1.2313    0.0000 H   0  0  0  0  0  0  0  0  0  0  0  0
   -2.5346    0.5920    0.0000 H   0  0  0  0  0  0  0  0  0  0  0  0
   -3.0914   -0.1990    0.0000 H   0  0  0  0  0  0  0  0  0  0  0  0
   -2.8416   -0.7382    0.0000 H   0  0  0  0  0  0  0  0  0  0  0  0
   -3.3770   -1.3758    0.0000 H   0  0  0  0  0  0  0  0  0  0  0  0
   -2.7921   -2.0925    0.0000 H   0  0  0  0  0  0  0  0  0  0  0  0
   -1.9094   -1.8154    0.0000 H   0  0  0  0  0  0  0  0  0  0  0  0
  1 23  1  1  0  0  0
  1  2  1  0  0  0  0
 21  1  1  0  0  0  0
  1 22  1  0  0  0  0
  3  2  1  0  0  0  0
  3 24  1  6  0  0  0
  3  4  1  0  0  0  0
  8  3  1  0  0  0  0
  4  5  1  0  0  0  0
  5  6  1  0  0  0  0
  5 28  1  0  0  0  0
  5 29  1  0  0  0  0
  6  7  1  0  0  0  0
  6 30  1  0  0  0  0
  6 31  1  0  0  0  0
  8  7  1  0  0  0  0
  7 32  1  0  0  0  0
  7 33  1  0  0  0  0
  8 25  1  6  0  0  0
  9  8  1  0  0  0  0
  9 26  1  6  0  0  0
  9 10  1  0  0  0  0
 21  9  1  0  0  0  0
 10 11  1  0  0  0  0
 10 34  1  0  0  0  0
 10 35  1  0  0  0  0
 12 11  1  0  0  0  0
 11 36  1  0  0  0  0
 11 37  1  0  0  0  0
 12 13  1  6  0  0  0
 14 12  1  0  0  0  0
 12 38  1  1  0  0  0
 13 39  1  0  0  0  0
 13 40  1  0  0  0  0
 13 41  1  0  0  0  0
 14 27  1  6  0  0  0
 14 15  1  0  0  0  0
 21 14  1  0  0  0  0
 15 16  1  0  0  0  0
 15 42  1  0  0  0  0
 15 43  1  0  0  0  0
 17 16  1  0  0  0  0
 16 44  1  0  0  0  0
 16 45  1  0  0  0  0
 17 18  1  6  0  0  0
 17 19  1  0  0  0  0
 17 22  1  0  0  0  0
 18 46  1  0  0  0  0
 18 47  1  0  0  0  0
 18 48  1  0  0  0  0
 19 20  1  0  0  0  0
 21 20  1  1  0  0  0
M  END
