
  Mrv171c004271813302D          

 62 65  0  0  0  0            999 V2000
   -2.0952   -4.7498    0.0000 C   0  0  0  0  0  0  0  0  0  0  0  0
   -1.4094   -4.2911    0.0000 O   0  0  0  0  0  0  0  0  0  0  0  0
   -1.4637   -3.4679    0.0000 C   0  0  0  0  0  0  0  0  0  0  0  0
   -0.7779   -3.0093    0.0000 O   0  0  0  0  0  0  0  0  0  0  0  0
   -2.2038   -3.1033    0.0000 C   0  0  0  0  0  0  0  0  0  0  0  0
   -2.8895   -3.5620    0.0000 C   0  0  0  0  0  0  0  0  0  0  0  0
   -3.6296   -3.1974    0.0000 C   0  0  0  0  0  0  0  0  0  0  0  0
   -3.6839   -2.3742    0.0000 C   0  0  0  0  0  0  0  0  0  0  0  0
   -2.9982   -1.9156    0.0000 C   0  0  0  0  0  0  0  0  0  0  0  0
   -2.2581   -2.2801    0.0000 C   0  0  0  0  0  0  0  0  0  0  0  0
   -1.5723   -1.8215    0.0000 S   0  0  0  0  0  0  0  0  0  0  0  0
   -1.1137   -2.5073    0.0000 O   0  0  0  0  0  0  0  0  0  0  0  0
   -2.0310   -1.1357    0.0000 O   0  0  0  0  0  0  0  0  0  0  0  0
   -0.8865   -1.3629    0.0000 O   0  0  0  0  0  0  0  0  0  0  0  0
   -0.9409   -0.5396    0.0000 C   0  0  0  0  0  0  0  0  0  0  0  0
   -0.2551   -0.0810    0.0000 C   0  0  0  0  0  0  0  0  0  0  0  0
   -0.3094    0.7422    0.0000 C   0  0  2  0  0  0  0  0  0  0  0  0
   -1.1376    0.9335    0.0000 C   0  0  0  0  0  0  0  0  0  0  0  0
   -1.2693    1.7685    0.0000 C   0  0  0  0  0  0  0  0  0  0  0  0
   -0.5404    2.2071    0.0000 C   0  0  0  0  0  0  0  0  0  0  0  0
    0.2770    1.9302    0.0000 C   0  0  2  0  0  0  0  0  0  0  0  0
    0.8410    2.6340    0.0000 C   0  0  0  0  0  0  0  0  0  0  0  0
    1.7325    2.8136    0.0000 C   0  0  0  0  0  0  0  0  0  0  0  0
    2.2678    2.0646    0.0000 C   0  0  1  0  0  0  0  0  0  0  0  0
    3.0687    2.2624    0.0000 C   0  0  0  0  0  0  0  0  0  0  0  0
    1.4924    2.1624    0.0000 O   0  0  0  0  0  0  0  0  0  0  0  0
    1.1846    1.4458    0.0000 O   0  0  0  0  0  0  0  0  0  0  0  0
    0.4977    1.0449    0.0000 C   0  0  1  0  0  0  0  0  0  0  0  0
    1.3633    0.7404    0.0000 C   0  0  1  0  0  0  0  0  0  0  0  0
    1.4303   -0.0819    0.0000 O   0  0  0  0  0  0  0  0  0  0  0  0
    2.1759   -0.4350    0.0000 C   0  0  0  0  0  0  0  0  0  0  0  0
    2.1448    1.1683    0.0000 O   0  0  0  0  0  0  0  0  0  0  0  0
   -0.3637    1.5654    0.0000 H   0  0  0  0  0  0  0  0  0  0  0  0
    1.0829    1.7537    0.0000 H   0  0  0  0  0  0  0  0  0  0  0  0
    2.0895    0.3490    0.0000 H   0  0  0  0  0  0  0  0  0  0  0  0
   -2.5538   -4.0640    0.0000 H   0  0  0  0  0  0  0  0  0  0  0  0
   -2.7809   -5.2084    0.0000 H   0  0  0  0  0  0  0  0  0  0  0  0
   -1.6365   -5.4355    0.0000 H   0  0  0  0  0  0  0  0  0  0  0  0
   -3.4332   -4.1825    0.0000 H   0  0  0  0  0  0  0  0  0  0  0  0
   -4.3154   -3.6561    0.0000 H   0  0  0  0  0  0  0  0  0  0  0  0
   -4.4240   -2.0096    0.0000 H   0  0  0  0  0  0  0  0  0  0  0  0
   -3.0525   -1.0924    0.0000 H   0  0  0  0  0  0  0  0  0  0  0  0
   -1.4386    0.1183    0.0000 H   0  0  0  0  0  0  0  0  0  0  0  0
   -1.7658   -0.5460    0.0000 H   0  0  0  0  0  0  0  0  0  0  0  0
    0.2426   -0.7389    0.0000 H   0  0  0  0  0  0  0  0  0  0  0  0
    0.5699   -0.0747    0.0000 H   0  0  0  0  0  0  0  0  0  0  0  0
   -1.9586    1.0148    0.0000 H   0  0  0  0  0  0  0  0  0  0  0  0
   -0.7457    0.2076    0.0000 H   0  0  0  0  0  0  0  0  0  0  0  0
   -1.7710    2.4234    0.0000 H   0  0  0  0  0  0  0  0  0  0  0  0
   -2.0935    1.7318    0.0000 H   0  0  0  0  0  0  0  0  0  0  0  0
   -0.2668    2.9855    0.0000 H   0  0  0  0  0  0  0  0  0  0  0  0
   -0.9738    2.9091    0.0000 H   0  0  0  0  0  0  0  0  0  0  0  0
    0.7418    3.4530    0.0000 H   0  0  0  0  0  0  0  0  0  0  0  0
    0.1589    3.0980    0.0000 H   0  0  0  0  0  0  0  0  0  0  0  0
    2.3536    3.3565    0.0000 H   0  0  0  0  0  0  0  0  0  0  0  0
    1.6493    3.6343    0.0000 H   0  0  0  0  0  0  0  0  0  0  0  0
    3.2665    1.4614    0.0000 H   0  0  0  0  0  0  0  0  0  0  0  0
    3.8697    2.4602    0.0000 H   0  0  0  0  0  0  0  0  0  0  0  0
    2.8709    3.0633    0.0000 H   0  0  0  0  0  0  0  0  0  0  0  0
    1.6463   -1.0676    0.0000 H   0  0  0  0  0  0  0  0  0  0  0  0
    2.6547   -1.1068    0.0000 H   0  0  0  0  0  0  0  0  0  0  0  0
    2.9467   -0.1409    0.0000 H   0  0  0  0  0  0  0  0  0  0  0  0
  1  2  1  0  0  0  0
  1 36  1  0  0  0  0
  1 37  1  0  0  0  0
  1 38  1  0  0  0  0
  2  3  1  0  0  0  0
  3  4  2  0  0  0  0
  3  5  1  0  0  0  0
  5  6  1  0  0  0  0
  5 10  2  0  0  0  0
  6  7  2  0  0  0  0
  6 39  1  0  0  0  0
  7  8  1  0  0  0  0
  7 40  1  0  0  0  0
  8  9  2  0  0  0  0
  8 41  1  0  0  0  0
  9 10  1  0  0  0  0
  9 42  1  0  0  0  0
 10 11  1  0  0  0  0
 11 12  2  0  0  0  0
 11 13  2  0  0  0  0
 11 14  1  0  0  0  0
 14 15  1  0  0  0  0
 15 16  1  0  0  0  0
 15 43  1  0  0  0  0
 15 44  1  0  0  0  0
 17 16  1  0  0  0  0
 16 45  1  0  0  0  0
 16 46  1  0  0  0  0
 17 33  1  1  0  0  0
 17 18  1  6  0  0  0
 28 17  1  0  0  0  0
 18 19  1  0  0  0  0
 18 47  1  0  0  0  0
 18 48  1  0  0  0  0
 19 20  1  0  0  0  0
 19 49  1  0  0  0  0
 19 50  1  0  0  0  0
 21 20  1  0  0  0  0
 20 51  1  0  0  0  0
 20 52  1  0  0  0  0
 21 34  1  1  0  0  0
 21 22  1  0  0  0  0
 28 21  1  0  0  0  0
 22 23  1  0  0  0  0
 22 53  1  0  0  0  0
 22 54  1  0  0  0  0
 24 23  1  0  0  0  0
 23 55  1  0  0  0  0
 23 56  1  0  0  0  0
 24 25  1  1  0  0  0
 24 26  1  0  0  0  0
 24 32  1  0  0  0  0
 25 57  1  0  0  0  0
 25 58  1  0  0  0  0
 25 59  1  0  0  0  0
 26 27  1  0  0  0  0
 28 27  1  1  0  0  0
 28 29  1  0  0  0  0
 29 35  1  1  0  0  0
 29 30  1  0  0  0  0
 29 32  1  0  0  0  0
 30 31  1  0  0  0  0
 31 60  1  0  0  0  0
 31 61  1  0  0  0  0
 31 62  1  0  0  0  0
M  END
