
  Mrv171c004271813302D          

 53 55  0  0  0  0            999 V2000
   -0.8611   -0.9072    0.0000 C   0  0  2  0  0  0  0  0  0  0  0  0
   -0.1267   -1.2831    0.0000 O   0  0  0  0  0  0  0  0  0  0  0  0
    0.5660   -0.8350    0.0000 C   0  0  0  0  0  0  0  0  0  0  0  0
   -1.6299   -1.3732    0.0000 O   0  0  0  0  0  0  0  0  0  0  0  0
   -2.4971   -1.1371    0.0000 C   0  0  1  0  0  0  0  0  0  0  0  0
   -2.9911   -1.7978    0.0000 C   0  0  0  0  0  0  0  0  0  0  0  0
   -2.9663   -0.3761    0.0000 C   0  0  0  0  0  0  0  0  0  0  0  0
   -2.5382    0.4027    0.0000 C   0  0  0  0  0  0  0  0  0  0  0  0
   -1.6549    0.5651    0.0000 C   0  0  1  0  0  0  0  0  0  0  0  0
   -1.6843    1.4269    0.0000 C   0  0  0  0  0  0  0  0  0  0  0  0
   -0.9000    1.7199    0.0000 C   0  0  0  0  0  0  0  0  0  0  0  0
   -0.2012    1.2530    0.0000 C   0  0  0  0  0  0  0  0  0  0  0  0
   -0.1818    0.4151    0.0000 C   0  0  1  0  0  0  0  0  0  0  0  0
    0.5327    0.0026    0.0000 C   0  0  0  0  0  0  0  0  0  0  0  0
    1.2472    0.4151    0.0000 C   0  0  0  0  0  0  0  0  0  0  0  0
    1.9616    0.0026    0.0000 O   0  0  0  0  0  0  0  0  0  0  0  0
    2.6761    0.4151    0.0000 C   0  0  0  0  0  0  0  0  0  0  0  0
    2.6761    1.2401    0.0000 O   0  0  0  0  0  0  0  0  0  0  0  0
    3.3906    0.0026    0.0000 N   0  0  0  0  0  0  0  0  0  0  0  0
    4.1050    0.4151    0.0000 C   0  0  0  0  0  0  0  0  0  0  0  0
    3.3906   -0.8224    0.0000 C   0  0  0  0  0  0  0  0  0  0  0  0
   -0.9340    0.0037    0.0000 C   0  0  1  0  0  0  0  0  0  0  0  0
   -1.4775   -0.5614    0.0000 O   0  0  0  0  0  0  0  0  0  0  0  0
   -2.2352   -0.3861    0.0000 O   0  0  0  0  0  0  0  0  0  0  0  0
   -0.1750   -0.4491    0.0000 H   0  0  0  0  0  0  0  0  0  0  0  0
   -1.8509   -0.2362    0.0000 H   0  0  0  0  0  0  0  0  0  0  0  0
    0.5279    0.8358    0.0000 H   0  0  0  0  0  0  0  0  0  0  0  0
    0.6055   -1.6591    0.0000 H   0  0  0  0  0  0  0  0  0  0  0  0
    1.2984   -1.2149    0.0000 H   0  0  0  0  0  0  0  0  0  0  0  0
    1.2623   -0.3926    0.0000 H   0  0  0  0  0  0  0  0  0  0  0  0
   -3.6518   -1.3038    0.0000 H   0  0  0  0  0  0  0  0  0  0  0  0
   -3.4851   -2.4586    0.0000 H   0  0  0  0  0  0  0  0  0  0  0  0
   -2.3304   -2.2919    0.0000 H   0  0  0  0  0  0  0  0  0  0  0  0
   -3.7122   -0.0237    0.0000 H   0  0  0  0  0  0  0  0  0  0  0  0
   -3.6937   -0.7653    0.0000 H   0  0  0  0  0  0  0  0  0  0  0  0
   -2.6839    1.2148    0.0000 H   0  0  0  0  0  0  0  0  0  0  0  0
   -3.2629    0.7970    0.0000 H   0  0  0  0  0  0  0  0  0  0  0  0
   -2.0751    2.1534    0.0000 H   0  0  0  0  0  0  0  0  0  0  0  0
   -2.5050    1.5108    0.0000 H   0  0  0  0  0  0  0  0  0  0  0  0
   -0.4548    2.4145    0.0000 H   0  0  0  0  0  0  0  0  0  0  0  0
   -1.1740    2.4980    0.0000 H   0  0  0  0  0  0  0  0  0  0  0  0
    0.6229    1.2917    0.0000 H   0  0  0  0  0  0  0  0  0  0  0  0
    0.2733    1.9280    0.0000 H   0  0  0  0  0  0  0  0  0  0  0  0
   -0.2921   -0.0157    0.0000 H   0  0  0  0  0  0  0  0  0  0  0  0
    0.1506   -0.7286    0.0000 H   0  0  0  0  0  0  0  0  0  0  0  0
    1.9624    0.8263    0.0000 H   0  0  0  0  0  0  0  0  0  0  0  0
    1.2503    1.2401    0.0000 H   0  0  0  0  0  0  0  0  0  0  0  0
    4.5175   -0.2994    0.0000 H   0  0  0  0  0  0  0  0  0  0  0  0
    4.8195    0.8276    0.0000 H   0  0  0  0  0  0  0  0  0  0  0  0
    3.6925    1.1296    0.0000 H   0  0  0  0  0  0  0  0  0  0  0  0
    2.5656   -0.8224    0.0000 H   0  0  0  0  0  0  0  0  0  0  0  0
    3.3906   -1.6474    0.0000 H   0  0  0  0  0  0  0  0  0  0  0  0
    4.2156   -0.8224    0.0000 H   0  0  0  0  0  0  0  0  0  0  0  0
  1 25  1  1  0  0  0
  1  2  1  0  0  0  0
  1  4  1  0  0  0  0
 22  1  1  0  0  0  0
  2  3  1  0  0  0  0
  3 28  1  0  0  0  0
  3 29  1  0  0  0  0
  3 30  1  0  0  0  0
  5  4  1  0  0  0  0
  5  6  1  6  0  0  0
  5  7  1  0  0  0  0
  5 24  1  0  0  0  0
  6 31  1  0  0  0  0
  6 32  1  0  0  0  0
  6 33  1  0  0  0  0
  7  8  1  0  0  0  0
  7 34  1  0  0  0  0
  7 35  1  0  0  0  0
  9  8  1  0  0  0  0
  8 36  1  0  0  0  0
  8 37  1  0  0  0  0
  9 26  1  6  0  0  0
  9 10  1  0  0  0  0
 22  9  1  0  0  0  0
 10 11  1  0  0  0  0
 10 38  1  0  0  0  0
 10 39  1  0  0  0  0
 11 12  1  0  0  0  0
 11 40  1  0  0  0  0
 11 41  1  0  0  0  0
 13 12  1  0  0  0  0
 12 42  1  0  0  0  0
 12 43  1  0  0  0  0
 13 27  1  6  0  0  0
 13 14  1  0  0  0  0
 22 13  1  0  0  0  0
 14 15  1  0  0  0  0
 14 44  1  0  0  0  0
 14 45  1  0  0  0  0
 15 16  1  0  0  0  0
 15 46  1  0  0  0  0
 15 47  1  0  0  0  0
 16 17  1  0  0  0  0
 17 18  2  0  0  0  0
 17 19  1  0  0  0  0
 19 20  1  0  0  0  0
 19 21  1  0  0  0  0
 20 48  1  0  0  0  0
 20 49  1  0  0  0  0
 20 50  1  0  0  0  0
 21 51  1  0  0  0  0
 21 52  1  0  0  0  0
 21 53  1  0  0  0  0
 22 23  1  6  0  0  0
 23 24  1  0  0  0  0
M  END
