
  Mrv171c004271813302D          

 60 62  0  0  0  0            999 V2000
   -2.8514   -3.9402    0.0000 C   0  0  0  0  0  0  0  0  0  0  0  0
   -2.1656   -3.4815    0.0000 C   0  0  0  0  0  0  0  0  0  0  0  0
   -2.2199   -2.6583    0.0000 O   0  0  0  0  0  0  0  0  0  0  0  0
   -1.5342   -2.1997    0.0000 P   0  0  0  0  0  0  0  0  0  0  0  0
   -1.0755   -2.8855    0.0000 O   0  0  0  0  0  0  0  0  0  0  0  0
   -1.9928   -1.5139    0.0000 O   0  0  0  0  0  0  0  0  0  0  0  0
   -1.6282   -0.7738    0.0000 C   0  0  0  0  0  0  0  0  0  0  0  0
   -2.0869   -0.0881    0.0000 C   0  0  0  0  0  0  0  0  0  0  0  0
   -0.8484   -1.7410    0.0000 O   0  0  0  0  0  0  0  0  0  0  0  0
   -0.9027   -0.9178    0.0000 C   0  0  0  0  0  0  0  0  0  0  0  0
   -0.2169   -0.4592    0.0000 C   0  0  0  0  0  0  0  0  0  0  0  0
   -0.2712    0.3640    0.0000 C   0  0  2  0  0  0  0  0  0  0  0  0
   -1.0995    0.5553    0.0000 C   0  0  0  0  0  0  0  0  0  0  0  0
   -1.2311    1.3903    0.0000 C   0  0  0  0  0  0  0  0  0  0  0  0
   -0.5023    1.8289    0.0000 C   0  0  0  0  0  0  0  0  0  0  0  0
    0.3152    1.5520    0.0000 C   0  0  2  0  0  0  0  0  0  0  0  0
    0.8792    2.2558    0.0000 C   0  0  0  0  0  0  0  0  0  0  0  0
    1.7706    2.4354    0.0000 C   0  0  0  0  0  0  0  0  0  0  0  0
    2.3059    1.6864    0.0000 C   0  0  1  0  0  0  0  0  0  0  0  0
    3.1069    1.8842    0.0000 C   0  0  0  0  0  0  0  0  0  0  0  0
    1.5305    1.7842    0.0000 O   0  0  0  0  0  0  0  0  0  0  0  0
    1.2228    1.0676    0.0000 O   0  0  0  0  0  0  0  0  0  0  0  0
    0.5359    0.6667    0.0000 C   0  0  1  0  0  0  0  0  0  0  0  0
    1.4014    0.3622    0.0000 C   0  0  1  0  0  0  0  0  0  0  0  0
    1.4684   -0.4601    0.0000 O   0  0  0  0  0  0  0  0  0  0  0  0
    2.2141   -0.8132    0.0000 C   0  0  0  0  0  0  0  0  0  0  0  0
    2.1830    0.7901    0.0000 O   0  0  0  0  0  0  0  0  0  0  0  0
   -0.3255    1.1872    0.0000 H   0  0  0  0  0  0  0  0  0  0  0  0
    1.1210    1.3755    0.0000 H   0  0  0  0  0  0  0  0  0  0  0  0
    2.1277   -0.0292    0.0000 H   0  0  0  0  0  0  0  0  0  0  0  0
   -3.3100   -3.2544    0.0000 H   0  0  0  0  0  0  0  0  0  0  0  0
   -3.5371   -4.3988    0.0000 H   0  0  0  0  0  0  0  0  0  0  0  0
   -2.3927   -4.6259    0.0000 H   0  0  0  0  0  0  0  0  0  0  0  0
   -1.6679   -4.1395    0.0000 H   0  0  0  0  0  0  0  0  0  0  0  0
   -1.3406   -3.4752    0.0000 H   0  0  0  0  0  0  0  0  0  0  0  0
   -1.1702   -0.0877    0.0000 H   0  0  0  0  0  0  0  0  0  0  0  0
   -1.2630   -1.5136    0.0000 H   0  0  0  0  0  0  0  0  0  0  0  0
   -1.8867    0.7123    0.0000 H   0  0  0  0  0  0  0  0  0  0  0  0
   -2.8146    0.3005    0.0000 H   0  0  0  0  0  0  0  0  0  0  0  0
   -2.6406   -0.6996    0.0000 H   0  0  0  0  0  0  0  0  0  0  0  0
   -0.3319   -1.5135    0.0000 H   0  0  0  0  0  0  0  0  0  0  0  0
   -0.0826   -1.0073    0.0000 H   0  0  0  0  0  0  0  0  0  0  0  0
    0.5984   -0.3333    0.0000 H   0  0  0  0  0  0  0  0  0  0  0  0
   -0.9570   -0.0946    0.0000 H   0  0  0  0  0  0  0  0  0  0  0  0
   -0.4959    1.1177    0.0000 H   0  0  0  0  0  0  0  0  0  0  0  0
   -1.7650    0.0678    0.0000 H   0  0  0  0  0  0  0  0  0  0  0  0
   -1.4702    2.1799    0.0000 H   0  0  0  0  0  0  0  0  0  0  0  0
   -1.9467    1.8008    0.0000 H   0  0  0  0  0  0  0  0  0  0  0  0
   -0.2287    2.6073    0.0000 H   0  0  0  0  0  0  0  0  0  0  0  0
   -0.9357    2.5309    0.0000 H   0  0  0  0  0  0  0  0  0  0  0  0
    0.7800    3.0748    0.0000 H   0  0  0  0  0  0  0  0  0  0  0  0
    0.1970    2.7198    0.0000 H   0  0  0  0  0  0  0  0  0  0  0  0
    2.3918    2.9783    0.0000 H   0  0  0  0  0  0  0  0  0  0  0  0
    1.6874    3.2562    0.0000 H   0  0  0  0  0  0  0  0  0  0  0  0
    3.3047    1.0832    0.0000 H   0  0  0  0  0  0  0  0  0  0  0  0
    3.9078    2.0820    0.0000 H   0  0  0  0  0  0  0  0  0  0  0  0
    2.9091    2.6851    0.0000 H   0  0  0  0  0  0  0  0  0  0  0  0
    1.6845   -1.4458    0.0000 H   0  0  0  0  0  0  0  0  0  0  0  0
    2.6928   -1.4850    0.0000 H   0  0  0  0  0  0  0  0  0  0  0  0
    2.9849   -0.5191    0.0000 H   0  0  0  0  0  0  0  0  0  0  0  0
  1  2  1  0  0  0  0
  1 31  1  0  0  0  0
  1 32  1  0  0  0  0
  1 33  1  0  0  0  0
  2  3  1  0  0  0  0
  2 34  1  0  0  0  0
  2 35  1  0  0  0  0
  3  4  1  0  0  0  0
  4  5  2  0  0  0  0
  4  6  1  0  0  0  0
  4  9  1  0  0  0  0
  6  7  1  0  0  0  0
  7  8  1  0  0  0  0
  7 36  1  0  0  0  0
  7 37  1  0  0  0  0
  8 38  1  0  0  0  0
  8 39  1  0  0  0  0
  8 40  1  0  0  0  0
  9 10  1  0  0  0  0
 10 11  1  0  0  0  0
 10 41  1  0  0  0  0
 10 42  1  0  0  0  0
 12 11  1  0  0  0  0
 11 43  1  0  0  0  0
 11 44  1  0  0  0  0
 12 28  1  1  0  0  0
 12 13  1  6  0  0  0
 23 12  1  0  0  0  0
 13 14  1  0  0  0  0
 13 45  1  0  0  0  0
 13 46  1  0  0  0  0
 14 15  1  0  0  0  0
 14 47  1  0  0  0  0
 14 48  1  0  0  0  0
 16 15  1  0  0  0  0
 15 49  1  0  0  0  0
 15 50  1  0  0  0  0
 16 29  1  1  0  0  0
 16 17  1  0  0  0  0
 23 16  1  0  0  0  0
 17 18  1  0  0  0  0
 17 51  1  0  0  0  0
 17 52  1  0  0  0  0
 19 18  1  0  0  0  0
 18 53  1  0  0  0  0
 18 54  1  0  0  0  0
 19 20  1  1  0  0  0
 19 21  1  0  0  0  0
 19 27  1  0  0  0  0
 20 55  1  0  0  0  0
 20 56  1  0  0  0  0
 20 57  1  0  0  0  0
 21 22  1  0  0  0  0
 23 22  1  1  0  0  0
 23 24  1  0  0  0  0
 24 30  1  1  0  0  0
 24 25  1  0  0  0  0
 24 27  1  0  0  0  0
 25 26  1  0  0  0  0
 26 58  1  0  0  0  0
 26 59  1  0  0  0  0
 26 60  1  0  0  0  0
M  END
