
  Mrv171c004271813302D          

 70 74  0  0  0  0            999 V2000
   -1.5255    0.5547    0.0000 C   0  0  0  0  0  0  0  0  0  0  0  0
   -2.2063    1.0207    0.0000 O   0  0  0  0  0  0  0  0  0  0  0  0
   -2.1431    1.8433    0.0000 C   0  0  1  0  0  0  0  0  0  0  0  0
   -2.8697    2.3726    0.0000 O   0  0  0  0  0  0  0  0  0  0  0  0
   -2.9868    3.2637    0.0000 C   0  0  1  0  0  0  0  0  0  0  0  0
   -3.7870    3.4643    0.0000 C   0  0  0  0  0  0  0  0  0  0  0  0
   -2.4659    3.9904    0.0000 C   0  0  0  0  0  0  0  0  0  0  0  0
   -1.5822    3.8962    0.0000 C   0  0  0  0  0  0  0  0  0  0  0  0
   -1.0914    3.1440    0.0000 C   0  0  1  0  0  0  0  0  0  0  0  0
   -0.3078    3.5038    0.0000 C   0  0  0  0  0  0  0  0  0  0  0  0
    0.2653    2.8935    0.0000 C   0  0  0  0  0  0  0  0  0  0  0  0
    0.1044    2.0686    0.0000 C   0  0  0  0  0  0  0  0  0  0  0  0
   -0.6610    1.7272    0.0000 C   0  0  1  0  0  0  0  0  0  0  0  0
   -0.7657    0.9089    0.0000 C   0  0  0  0  0  0  0  0  0  0  0  0
   -0.1093    0.4091    0.0000 C   0  0  0  0  0  0  0  0  0  0  0  0
   -0.2140   -0.4093    0.0000 O   0  0  0  0  0  0  0  0  0  0  0  0
    0.4424   -0.9091    0.0000 S   0  0  0  0  0  0  0  0  0  0  0  0
   -0.0575   -1.5654    0.0000 O   0  0  0  0  0  0  0  0  0  0  0  0
    0.9422   -0.2527    0.0000 O   0  0  0  0  0  0  0  0  0  0  0  0
    1.0987   -1.4089    0.0000 C   0  0  0  0  0  0  0  0  0  0  0  0
    1.8597   -1.0904    0.0000 C   0  0  0  0  0  0  0  0  0  0  0  0
    2.5161   -1.5902    0.0000 C   0  0  0  0  0  0  0  0  0  0  0  0
    2.4114   -2.4085    0.0000 C   0  0  0  0  0  0  0  0  0  0  0  0
    1.6504   -2.7270    0.0000 C   0  0  0  0  0  0  0  0  0  0  0  0
    1.5457   -3.5454    0.0000 C   0  0  0  0  0  0  0  0  0  0  0  0
    2.2021   -4.0452    0.0000 N   0  0  0  0  0  0  0  0  0  0  0  0
    2.9631   -3.7267    0.0000 C   0  0  0  0  0  0  0  0  0  0  0  0
    2.0974   -4.8635    0.0000 C   0  0  0  0  0  0  0  0  0  0  0  0
    0.7847   -3.8639    0.0000 C   0  0  0  0  0  0  0  0  0  0  0  0
    0.1283   -3.3641    0.0000 C   0  0  0  0  0  0  0  0  0  0  0  0
    0.2330   -2.5457    0.0000 C   0  0  0  0  0  0  0  0  0  0  0  0
    0.9940   -2.2272    0.0000 C   0  0  0  0  0  0  0  0  0  0  0  0
   -1.3309    2.2623    0.0000 C   0  0  1  0  0  0  0  0  0  0  0  0
   -2.0621    2.5454    0.0000 O   0  0  0  0  0  0  0  0  0  0  0  0
   -2.1929    3.3121    0.0000 O   0  0  0  0  0  0  0  0  0  0  0  0
   -1.4556    1.3873    0.0000 H   0  0  0  0  0  0  0  0  0  0  0  0
   -1.9063    3.0155    0.0000 H   0  0  0  0  0  0  0  0  0  0  0  0
    0.0011    1.2350    0.0000 H   0  0  0  0  0  0  0  0  0  0  0  0
   -2.2704    0.2002    0.0000 H   0  0  0  0  0  0  0  0  0  0  0  0
   -1.5931   -0.2675    0.0000 H   0  0  0  0  0  0  0  0  0  0  0  0
   -0.8485    0.0832    0.0000 H   0  0  0  0  0  0  0  0  0  0  0  0
   -3.5864    4.2646    0.0000 H   0  0  0  0  0  0  0  0  0  0  0  0
   -4.5873    3.6650    0.0000 H   0  0  0  0  0  0  0  0  0  0  0  0
   -3.9876    2.6641    0.0000 H   0  0  0  0  0  0  0  0  0  0  0  0
   -2.4289    4.8145    0.0000 H   0  0  0  0  0  0  0  0  0  0  0  0
   -3.1058    4.5111    0.0000 H   0  0  0  0  0  0  0  0  0  0  0  0
   -0.8894    4.3440    0.0000 H   0  0  0  0  0  0  0  0  0  0  0  0
   -1.4984    4.7169    0.0000 H   0  0  0  0  0  0  0  0  0  0  0  0
    0.2115    4.1449    0.0000 H   0  0  0  0  0  0  0  0  0  0  0  0
   -0.5473    4.2933    0.0000 H   0  0  0  0  0  0  0  0  0  0  0  0
    1.0779    2.7510    0.0000 H   0  0  0  0  0  0  0  0  0  0  0  0
    0.8773    3.4467    0.0000 H   0  0  0  0  0  0  0  0  0  0  0  0
    0.4583    1.3234    0.0000 H   0  0  0  0  0  0  0  0  0  0  0  0
    0.9102    1.8916    0.0000 H   0  0  0  0  0  0  0  0  0  0  0  0
   -1.1011    1.6626    0.0000 H   0  0  0  0  0  0  0  0  0  0  0  0
   -1.5877    0.9790    0.0000 H   0  0  0  0  0  0  0  0  0  0  0  0
    0.5461   -0.0920    0.0000 H   0  0  0  0  0  0  0  0  0  0  0  0
    0.6529    0.7247    0.0000 H   0  0  0  0  0  0  0  0  0  0  0  0
    1.9644   -0.2720    0.0000 H   0  0  0  0  0  0  0  0  0  0  0  0
    3.2771   -1.2717    0.0000 H   0  0  0  0  0  0  0  0  0  0  0  0
    3.0678   -2.9083    0.0000 H   0  0  0  0  0  0  0  0  0  0  0  0
    2.8585   -4.5450    0.0000 H   0  0  0  0  0  0  0  0  0  0  0  0
    3.6195   -4.2265    0.0000 H   0  0  0  0  0  0  0  0  0  0  0  0
    3.7242   -3.4081    0.0000 H   0  0  0  0  0  0  0  0  0  0  0  0
    1.3341   -4.5506    0.0000 H   0  0  0  0  0  0  0  0  0  0  0  0
    1.5976   -5.5199    0.0000 H   0  0  0  0  0  0  0  0  0  0  0  0
    2.6021   -5.5162    0.0000 H   0  0  0  0  0  0  0  0  0  0  0  0
    0.2084   -4.4542    0.0000 H   0  0  0  0  0  0  0  0  0  0  0  0
   -0.6327   -3.6826    0.0000 H   0  0  0  0  0  0  0  0  0  0  0  0
   -0.4233   -2.0459    0.0000 H   0  0  0  0  0  0  0  0  0  0  0  0
  1  2  1  0  0  0  0
  1 39  1  0  0  0  0
  1 40  1  0  0  0  0
  1 41  1  0  0  0  0
  3  2  1  0  0  0  0
  3 36  1  6  0  0  0
  3  4  1  0  0  0  0
 33  3  1  0  0  0  0
  5  4  1  0  0  0  0
  5  6  1  6  0  0  0
  5  7  1  0  0  0  0
  5 35  1  0  0  0  0
  6 42  1  0  0  0  0
  6 43  1  0  0  0  0
  6 44  1  0  0  0  0
  7  8  1  0  0  0  0
  7 45  1  0  0  0  0
  7 46  1  0  0  0  0
  9  8  1  0  0  0  0
  8 47  1  0  0  0  0
  8 48  1  0  0  0  0
  9 37  1  6  0  0  0
  9 10  1  0  0  0  0
 33  9  1  0  0  0  0
 10 11  1  0  0  0  0
 10 49  1  0  0  0  0
 10 50  1  0  0  0  0
 11 12  1  0  0  0  0
 11 51  1  0  0  0  0
 11 52  1  0  0  0  0
 13 12  1  0  0  0  0
 12 53  1  0  0  0  0
 12 54  1  0  0  0  0
 13 38  1  6  0  0  0
 13 14  1  0  0  0  0
 33 13  1  0  0  0  0
 14 15  1  0  0  0  0
 14 55  1  0  0  0  0
 14 56  1  0  0  0  0
 15 16  1  0  0  0  0
 15 57  1  0  0  0  0
 15 58  1  0  0  0  0
 16 17  1  0  0  0  0
 17 18  2  0  0  0  0
 17 19  2  0  0  0  0
 17 20  1  0  0  0  0
 20 21  1  0  0  0  0
 20 32  2  0  0  0  0
 21 22  2  0  0  0  0
 21 59  1  0  0  0  0
 22 23  1  0  0  0  0
 22 60  1  0  0  0  0
 23 24  2  0  0  0  0
 23 61  1  0  0  0  0
 24 25  1  0  0  0  0
 24 32  1  0  0  0  0
 25 26  1  0  0  0  0
 25 29  2  0  0  0  0
 26 27  1  0  0  0  0
 26 28  1  0  0  0  0
 27 62  1  0  0  0  0
 27 63  1  0  0  0  0
 27 64  1  0  0  0  0
 28 65  1  0  0  0  0
 28 66  1  0  0  0  0
 28 67  1  0  0  0  0
 29 30  1  0  0  0  0
 29 68  1  0  0  0  0
 30 31  2  0  0  0  0
 30 69  1  0  0  0  0
 31 32  1  0  0  0  0
 31 70  1  0  0  0  0
 33 34  1  6  0  0  0
 34 35  1  0  0  0  0
M  END
