
  Mrv171c004271813302D          

 39 40  0  0  0  0            999 V2000
    1.8897   -1.2527    0.0000 C   0  0  0  0  0  0  0  0  0  0  0  0
    2.0127   -0.4369    0.0000 O   0  0  0  0  0  0  0  0  0  0  0  0
    1.3677    0.0775    0.0000 C   0  0  2  0  0  0  0  0  0  0  0  0
    2.0127    0.5919    0.0000 C   0  0  0  0  0  0  0  0  0  0  0  0
    1.0097   -0.6658    0.0000 C   0  0  0  0  0  0  0  0  0  0  0  0
    0.2054   -0.8494    0.0000 C   0  0  0  0  0  0  0  0  0  0  0  0
   -0.4396   -0.3350    0.0000 C   0  0  1  0  0  0  0  0  0  0  0  0
   -1.1541   -0.7475    0.0000 C   0  0  1  0  0  0  0  0  0  0  0  0
   -1.1541   -1.5725    0.0000 C   0  0  0  0  0  0  0  0  0  0  0  0
   -1.8686   -0.3350    0.0000 C   0  0  0  0  0  0  0  0  0  0  0  0
   -1.8686    0.4900    0.0000 C   0  0  0  0  0  0  0  0  0  0  0  0
   -1.1541    0.9025    0.0000 C   0  0  0  0  0  0  0  0  0  0  0  0
   -0.4396    0.4900    0.0000 C   0  0  1  0  0  0  0  0  0  0  0  0
   -0.5013    1.3127    0.0000 C   0  0  0  0  0  0  0  0  0  0  0  0
    0.1804    1.7774    0.0000 O   0  0  0  0  0  0  0  0  0  0  0  0
    0.2054    1.0044    0.0000 O   0  0  0  0  0  0  0  0  0  0  0  0
    1.0097    0.8208    0.0000 O   0  0  0  0  0  0  0  0  0  0  0  0
    1.0739   -1.1297    0.0000 H   0  0  0  0  0  0  0  0  0  0  0  0
    1.7668   -2.0685    0.0000 H   0  0  0  0  0  0  0  0  0  0  0  0
    2.7055   -1.3757    0.0000 H   0  0  0  0  0  0  0  0  0  0  0  0
    2.5271   -0.0532    0.0000 H   0  0  0  0  0  0  0  0  0  0  0  0
    2.6577    1.1062    0.0000 H   0  0  0  0  0  0  0  0  0  0  0  0
    1.4983    1.2369    0.0000 H   0  0  0  0  0  0  0  0  0  0  0  0
    1.8247   -0.7937    0.0000 H   0  0  0  0  0  0  0  0  0  0  0  0
    0.4953   -0.0208    0.0000 H   0  0  0  0  0  0  0  0  0  0  0  0
   -0.4315   -1.3739    0.0000 H   0  0  0  0  0  0  0  0  0  0  0  0
    0.1201   -1.6700    0.0000 H   0  0  0  0  0  0  0  0  0  0  0  0
    0.3037    0.0229    0.0000 H   0  0  0  0  0  0  0  0  0  0  0  0
   -1.1541    0.0775    0.0000 H   0  0  0  0  0  0  0  0  0  0  0  0
   -1.9357   -1.3086    0.0000 H   0  0  0  0  0  0  0  0  0  0  0  0
   -1.6542   -2.2287    0.0000 H   0  0  0  0  0  0  0  0  0  0  0  0
   -0.6924   -2.2563    0.0000 H   0  0  0  0  0  0  0  0  0  0  0  0
   -2.6922   -0.3830    0.0000 H   0  0  0  0  0  0  0  0  0  0  0  0
   -2.3219   -1.0243    0.0000 H   0  0  0  0  0  0  0  0  0  0  0  0
   -2.3219    1.1792    0.0000 H   0  0  0  0  0  0  0  0  0  0  0  0
   -2.6922    0.5379    0.0000 H   0  0  0  0  0  0  0  0  0  0  0  0
   -1.1747    1.7272    0.0000 H   0  0  0  0  0  0  0  0  0  0  0  0
   -1.8736    1.3060    0.0000 H   0  0  0  0  0  0  0  0  0  0  0  0
   -0.5205    2.1374    0.0000 H   0  0  0  0  0  0  0  0  0  0  0  0
  1  2  1  0  0  0  0
  1 18  1  0  0  0  0
  1 19  1  0  0  0  0
  1 20  1  0  0  0  0
  3  2  1  6  0  0  0
  3  4  1  1  0  0  0
  3  5  1  0  0  0  0
  3 17  1  0  0  0  0
  4 21  1  0  0  0  0
  4 22  1  0  0  0  0
  4 23  1  0  0  0  0
  5  6  1  0  0  0  0
  5 24  1  0  0  0  0
  5 25  1  0  0  0  0
  7  6  1  0  0  0  0
  6 26  1  0  0  0  0
  6 27  1  0  0  0  0
  7  8  1  0  0  0  0
  7 13  1  0  0  0  0
  7 28  1  6  0  0  0
  8  9  1  0  0  0  0
  8 10  1  0  0  0  0
  8 29  1  6  0  0  0
  9 30  1  0  0  0  0
  9 31  1  0  0  0  0
  9 32  1  0  0  0  0
 10 11  1  0  0  0  0
 10 33  1  0  0  0  0
 10 34  1  0  0  0  0
 11 12  1  0  0  0  0
 11 35  1  0  0  0  0
 11 36  1  0  0  0  0
 13 12  1  0  0  0  0
 12 37  1  0  0  0  0
 12 38  1  0  0  0  0
 13 14  1  1  0  0  0
 13 16  1  0  0  0  0
 14 15  2  0  0  0  0
 14 39  1  0  0  0  0
 16 17  1  0  0  0  0
M  END
