
  Mrv171c004271813302D          

 38 40  0  0  0  0            999 V2000
    1.4618   -1.9589    0.0000 C   0  0  0  0  0  0  0  0  0  0  0  0
    0.7765   -1.4996    0.0000 C   0  0  1  0  0  0  0  0  0  0  0  0
    0.0360   -1.8634    0.0000 C   0  0  0  0  0  0  0  0  0  0  0  0
   -0.0191   -2.6866    0.0000 O   0  0  0  0  0  0  0  0  0  0  0  0
   -0.6493   -1.4041    0.0000 O   0  0  0  0  0  0  0  0  0  0  0  0
   -0.5942   -0.5809    0.0000 C   0  0  2  0  0  0  0  0  0  0  0  0
   -1.4376   -0.2734    0.0000 O   0  0  0  0  0  0  0  0  0  0  0  0
   -1.7315    0.5307    0.0000 C   0  0  0  0  0  0  0  0  0  0  0  0
   -2.4761    0.1755    0.0000 C   0  0  0  0  0  0  0  0  0  0  0  0
   -2.1554    1.2384    0.0000 C   0  0  0  0  0  0  0  0  0  0  0  0
   -1.0395    1.0400    0.0000 O   0  0  0  0  0  0  0  0  0  0  0  0
   -0.5195    0.3813    0.0000 O   0  0  0  0  0  0  0  0  0  0  0  0
    0.1463   -0.2171    0.0000 C   0  0  1  0  0  0  0  0  0  0  0  0
    0.2014    0.6061    0.0000 C   0  0  0  0  0  0  0  0  0  0  0  0
    0.9418    0.9699    0.0000 C   0  0  0  0  0  0  0  0  0  0  0  0
    1.6271    0.5106    0.0000 C   0  0  0  0  0  0  0  0  0  0  0  0
    1.5720   -0.3126    0.0000 C   0  0  0  0  0  0  0  0  0  0  0  0
    0.8316   -0.6764    0.0000 C   0  0  1  0  0  0  0  0  0  0  0  0
    1.5169   -1.1357    0.0000 H   0  0  0  0  0  0  0  0  0  0  0  0
    1.0025   -2.6442    0.0000 H   0  0  0  0  0  0  0  0  0  0  0  0
    2.1471   -2.4182    0.0000 H   0  0  0  0  0  0  0  0  0  0  0  0
    1.9211   -1.2736    0.0000 H   0  0  0  0  0  0  0  0  0  0  0  0
    0.0911   -1.0403    0.0000 H   0  0  0  0  0  0  0  0  0  0  0  0
   -2.8313    0.9202    0.0000 H   0  0  0  0  0  0  0  0  0  0  0  0
   -3.2207   -0.1796    0.0000 H   0  0  0  0  0  0  0  0  0  0  0  0
   -2.1209   -0.5691    0.0000 H   0  0  0  0  0  0  0  0  0  0  0  0
   -1.3366    1.3389    0.0000 H   0  0  0  0  0  0  0  0  0  0  0  0
   -1.9152    2.0277    0.0000 H   0  0  0  0  0  0  0  0  0  0  0  0
   -2.7794    1.7781    0.0000 H   0  0  0  0  0  0  0  0  0  0  0  0
   -0.1042    1.3724    0.0000 H   0  0  0  0  0  0  0  0  0  0  0  0
    0.8867    0.1467    0.0000 H   0  0  0  0  0  0  0  0  0  0  0  0
    1.3605    1.6808    0.0000 H   0  0  0  0  0  0  0  0  0  0  0  0
    0.6216    1.7302    0.0000 H   0  0  0  0  0  0  0  0  0  0  0  0
    2.4521    0.5034    0.0000 H   0  0  0  0  0  0  0  0  0  0  0  0
    2.1255    1.1680    0.0000 H   0  0  0  0  0  0  0  0  0  0  0  0
    2.3267   -0.6459    0.0000 H   0  0  0  0  0  0  0  0  0  0  0  0
    2.3644   -0.0828    0.0000 H   0  0  0  0  0  0  0  0  0  0  0  0
    1.6547   -0.7315    0.0000 H   0  0  0  0  0  0  0  0  0  0  0  0
  2  1  1  0  0  0  0
  1 20  1  0  0  0  0
  1 21  1  0  0  0  0
  1 22  1  0  0  0  0
  2 19  1  6  0  0  0
  2  3  1  0  0  0  0
 18  2  1  0  0  0  0
  3  4  2  0  0  0  0
  3  5  1  0  0  0  0
  6  5  1  0  0  0  0
  6  7  1  0  0  0  0
 13  6  1  0  0  0  0
  6 23  1  1  0  0  0
  7  8  1  0  0  0  0
  8  9  1  0  0  0  0
  8 10  1  0  0  0  0
  8 11  1  0  0  0  0
  9 24  1  0  0  0  0
  9 25  1  0  0  0  0
  9 26  1  0  0  0  0
 10 27  1  0  0  0  0
 10 28  1  0  0  0  0
 10 29  1  0  0  0  0
 11 12  1  0  0  0  0
 13 12  1  6  0  0  0
 13 14  1  0  0  0  0
 13 18  1  0  0  0  0
 14 15  1  0  0  0  0
 14 30  1  0  0  0  0
 14 31  1  0  0  0  0
 15 16  1  0  0  0  0
 15 32  1  0  0  0  0
 15 33  1  0  0  0  0
 16 17  1  0  0  0  0
 16 34  1  0  0  0  0
 16 35  1  0  0  0  0
 18 17  1  0  0  0  0
 17 36  1  0  0  0  0
 17 37  1  0  0  0  0
 18 38  1  6  0  0  0
M  END
