
  Mrv171c004271813302D          

 49 51  0  0  0  0            999 V2000
   -1.7928    0.2516    0.0000 C   0  0  0  0  0  0  0  0  0  0  0  0
   -1.6320   -0.5732    0.0000 C   0  0  0  0  0  0  0  0  0  0  0  0
   -0.8665   -0.9147    0.0000 C   0  0  1  0  0  0  0  0  0  0  0  0
   -0.7618   -1.7330    0.0000 C   0  0  0  0  0  0  0  0  0  0  0  0
   -1.4182   -2.2328    0.0000 C   0  0  0  0  0  0  0  0  0  0  0  0
   -1.3135   -3.0511    0.0000 O   0  0  0  0  0  0  0  0  0  0  0  0
   -0.1966   -0.3796    0.0000 C   0  0  1  0  0  0  0  0  0  0  0  0
    0.5346   -0.0965    0.0000 O   0  0  0  0  0  0  0  0  0  0  0  0
    0.6654    0.6702    0.0000 O   0  0  0  0  0  0  0  0  0  0  0  0
    1.4592    0.6218    0.0000 C   0  0  1  0  0  0  0  0  0  0  0  0
    2.2595    0.8224    0.0000 C   0  0  0  0  0  0  0  0  0  0  0  0
    1.3422   -0.2693    0.0000 O   0  0  0  0  0  0  0  0  0  0  0  0
    0.6156   -0.7986    0.0000 C   0  0  2  0  0  0  0  0  0  0  0  0
    0.6788   -1.6211    0.0000 O   0  0  0  0  0  0  0  0  0  0  0  0
    1.4227   -1.9777    0.0000 C   0  0  0  0  0  0  0  0  0  0  0  0
    0.9384    1.3485    0.0000 C   0  0  0  0  0  0  0  0  0  0  0  0
    1.6813    1.7073    0.0000 C   0  0  0  0  0  0  0  0  0  0  0  0
    0.7119    2.1418    0.0000 C   0  0  0  0  0  0  0  0  0  0  0  0
    0.0547    1.2543    0.0000 C   0  0  0  0  0  0  0  0  0  0  0  0
   -0.4362    0.5021    0.0000 C   0  0  1  0  0  0  0  0  0  0  0  0
   -1.2197    0.8620    0.0000 C   0  0  0  0  0  0  0  0  0  0  0  0
   -2.4049    0.8048    0.0000 H   0  0  0  0  0  0  0  0  0  0  0  0
   -2.6054    0.1091    0.0000 H   0  0  0  0  0  0  0  0  0  0  0  0
   -0.1018   -1.2244    0.0000 H   0  0  0  0  0  0  0  0  0  0  0  0
    1.3647   -1.1442    0.0000 H   0  0  0  0  0  0  0  0  0  0  0  0
    0.3788    0.3736    0.0000 H   0  0  0  0  0  0  0  0  0  0  0  0
   -2.4377   -0.7503    0.0000 H   0  0  0  0  0  0  0  0  0  0  0  0
   -1.9858   -1.3185    0.0000 H   0  0  0  0  0  0  0  0  0  0  0  0
   -0.5149   -2.5202    0.0000 H   0  0  0  0  0  0  0  0  0  0  0  0
   -0.0661   -2.1764    0.0000 H   0  0  0  0  0  0  0  0  0  0  0  0
   -1.9553   -1.6066    0.0000 H   0  0  0  0  0  0  0  0  0  0  0  0
   -2.2412   -2.2897    0.0000 H   0  0  0  0  0  0  0  0  0  0  0  0
   -1.6563   -3.8016    0.0000 H   0  0  0  0  0  0  0  0  0  0  0  0
    2.4601    0.0222    0.0000 H   0  0  0  0  0  0  0  0  0  0  0  0
    3.0597    1.0231    0.0000 H   0  0  0  0  0  0  0  0  0  0  0  0
    2.0588    1.6227    0.0000 H   0  0  0  0  0  0  0  0  0  0  0  0
    0.8846   -2.6031    0.0000 H   0  0  0  0  0  0  0  0  0  0  0  0
    1.8863   -2.6601    0.0000 H   0  0  0  0  0  0  0  0  0  0  0  0
    2.2024   -1.7079    0.0000 H   0  0  0  0  0  0  0  0  0  0  0  0
    1.9320    2.4933    0.0000 H   0  0  0  0  0  0  0  0  0  0  0  0
    1.2583    2.4156    0.0000 H   0  0  0  0  0  0  0  0  0  0  0  0
    1.7757    0.8877    0.0000 H   0  0  0  0  0  0  0  0  0  0  0  0
    0.6910    2.9665    0.0000 H   0  0  0  0  0  0  0  0  0  0  0  0
   -0.0434    2.4737    0.0000 H   0  0  0  0  0  0  0  0  0  0  0  0
    0.0903    1.5994    0.0000 H   0  0  0  0  0  0  0  0  0  0  0  0
   -0.5290    1.8373    0.0000 H   0  0  0  0  0  0  0  0  0  0  0  0
   -0.7659    1.1687    0.0000 H   0  0  0  0  0  0  0  0  0  0  0  0
   -1.4885    1.6419    0.0000 H   0  0  0  0  0  0  0  0  0  0  0  0
   -1.9471    1.2512    0.0000 H   0  0  0  0  0  0  0  0  0  0  0  0
  1 22  1  0  0  0  0
  1 23  1  0  0  0  0
  1  2  1  0  0  0  0
  1 21  1  0  0  0  0
  3  2  1  0  0  0  0
  2 27  1  0  0  0  0
  2 28  1  0  0  0  0
  3 24  1  1  0  0  0
  3  4  1  0  0  0  0
  7  3  1  0  0  0  0
  4  5  1  0  0  0  0
  4 29  1  0  0  0  0
  4 30  1  0  0  0  0
  5  6  1  0  0  0  0
  5 31  1  0  0  0  0
  5 32  1  0  0  0  0
  6 33  1  0  0  0  0
  7  8  1  1  0  0  0
  7 13  1  0  0  0  0
  7 20  1  0  0  0  0
  8  9  1  0  0  0  0
 10  9  1  0  0  0  0
 10 11  1  1  0  0  0
 10 12  1  0  0  0  0
 10 16  1  0  0  0  0
 11 34  1  0  0  0  0
 11 35  1  0  0  0  0
 11 36  1  0  0  0  0
 13 12  1  0  0  0  0
 13 25  1  1  0  0  0
 13 14  1  0  0  0  0
 14 15  1  0  0  0  0
 15 37  1  0  0  0  0
 15 38  1  0  0  0  0
 15 39  1  0  0  0  0
 16 17  1  0  0  0  0
 16 18  1  0  0  0  0
 16 19  1  0  0  0  0
 17 40  1  0  0  0  0
 17 41  1  0  0  0  0
 17 42  1  0  0  0  0
 18 43  1  0  0  0  0
 18 44  1  0  0  0  0
 18 45  1  0  0  0  0
 20 19  1  0  0  0  0
 19 46  1  0  0  0  0
 19 47  1  0  0  0  0
 20 26  1  1  0  0  0
 20 21  1  0  0  0  0
 21 48  1  0  0  0  0
 21 49  1  0  0  0  0
M  END
