
  Mrv171c004271813302D          

 46 49  0  0  0  0            999 V2000
   -0.2849    1.0080    0.0000 C   0  0  1  0  0  0  0  0  0  0  0  0
    0.6478    0.7873    0.0000 C   0  0  0  0  0  0  0  0  0  0  0  0
    1.4798    1.0002    0.0000 C   0  0  1  0  0  0  0  0  0  0  0  0
    2.1653    1.4593    0.0000 C   0  0  0  0  0  0  0  0  0  0  0  0
    1.9656    0.3024    0.0000 C   0  0  0  0  0  0  0  0  0  0  0  0
    1.4768   -0.3866    0.0000 C   0  0  0  0  0  0  0  0  0  0  0  0
    0.6193   -0.3978    0.0000 C   0  0  1  0  0  0  0  0  0  0  0  0
    0.5029   -1.2451    0.0000 C   0  0  1  0  0  0  0  0  0  0  0  0
    1.1913   -1.6997    0.0000 C   0  0  0  0  0  0  0  0  0  0  0  0
   -0.2163   -1.6762    0.0000 C   0  0  0  0  0  0  0  0  0  0  0  0
   -0.7798   -1.0567    0.0000 C   0  0  0  0  0  0  0  0  0  0  0  0
   -0.6837   -0.2018    0.0000 C   0  0  1  0  0  0  0  0  0  0  0  0
   -1.5163    0.0308    0.0000 C   0  0  1  0  0  0  0  0  0  0  0  0
   -2.0766   -0.5747    0.0000 C   0  0  0  0  0  0  0  0  0  0  0  0
   -1.8049    0.8210    0.0000 C   0  0  1  0  0  0  0  0  0  0  0  0
   -2.5873    1.0824    0.0000 O   0  0  0  0  0  0  0  0  0  0  0  0
   -1.0997    1.2786    0.0000 O   0  0  0  0  0  0  0  0  0  0  0  0
    0.0587    0.2976    0.0000 C   0  0  1  0  0  0  0  0  0  0  0  0
    0.2972    1.2485    0.0000 O   0  0  0  0  0  0  0  0  0  0  0  0
    1.0234    1.7088    0.0000 O   0  0  0  0  0  0  0  0  0  0  0  0
   -0.3142    1.8324    0.0000 H   0  0  0  0  0  0  0  0  0  0  0  0
   -0.1756   -0.6186    0.0000 H   0  0  0  0  0  0  0  0  0  0  0  0
   -0.8150    0.6127    0.0000 H   0  0  0  0  0  0  0  0  0  0  0  0
   -1.9090    1.6394    0.0000 H   0  0  0  0  0  0  0  0  0  0  0  0
    1.0229    0.0525    0.0000 H   0  0  0  0  0  0  0  0  0  0  0  0
    0.9191    1.5664    0.0000 H   0  0  0  0  0  0  0  0  0  0  0  0
    2.6244    0.7739    0.0000 H   0  0  0  0  0  0  0  0  0  0  0  0
    2.8507    1.9184    0.0000 H   0  0  0  0  0  0  0  0  0  0  0  0
    1.7061    2.1448    0.0000 H   0  0  0  0  0  0  0  0  0  0  0  0
    2.2245   -0.4809    0.0000 H   0  0  0  0  0  0  0  0  0  0  0  0
    2.7499    0.0467    0.0000 H   0  0  0  0  0  0  0  0  0  0  0  0
    1.0408   -1.0870    0.0000 H   0  0  0  0  0  0  0  0  0  0  0  0
    1.8314   -1.1315    0.0000 H   0  0  0  0  0  0  0  0  0  0  0  0
    0.4849   -2.0699    0.0000 H   0  0  0  0  0  0  0  0  0  0  0  0
    0.9937   -2.5007    0.0000 H   0  0  0  0  0  0  0  0  0  0  0  0
    1.6601   -2.3786    0.0000 H   0  0  0  0  0  0  0  0  0  0  0  0
    2.0104   -1.7987    0.0000 H   0  0  0  0  0  0  0  0  0  0  0  0
   -0.9347   -2.0818    0.0000 H   0  0  0  0  0  0  0  0  0  0  0  0
   -0.4501   -2.4674    0.0000 H   0  0  0  0  0  0  0  0  0  0  0  0
   -1.5978   -0.9494    0.0000 H   0  0  0  0  0  0  0  0  0  0  0  0
   -1.3798   -1.6230    0.0000 H   0  0  0  0  0  0  0  0  0  0  0  0
   -1.2916   -0.7630    0.0000 H   0  0  0  0  0  0  0  0  0  0  0  0
   -2.4371    0.1674    0.0000 H   0  0  0  0  0  0  0  0  0  0  0  0
   -2.8990   -0.6407    0.0000 H   0  0  0  0  0  0  0  0  0  0  0  0
   -2.3141   -1.3648    0.0000 H   0  0  0  0  0  0  0  0  0  0  0  0
   -3.3594    1.3733    0.0000 H   0  0  0  0  0  0  0  0  0  0  0  0
  1 21  1  1  0  0  0
  1  2  1  0  0  0  0
  1 17  1  0  0  0  0
 18  1  1  0  0  0  0
  3  2  1  0  0  0  0
  2 25  1  0  0  0  0
  2 26  1  0  0  0  0
  3  4  1  1  0  0  0
  3  5  1  0  0  0  0
  3 20  1  0  0  0  0
  4 27  1  0  0  0  0
  4 28  1  0  0  0  0
  4 29  1  0  0  0  0
  5  6  1  0  0  0  0
  5 30  1  0  0  0  0
  5 31  1  0  0  0  0
  7  6  1  0  0  0  0
  6 32  1  0  0  0  0
  6 33  1  0  0  0  0
  7 22  1  6  0  0  0
  7  8  1  0  0  0  0
 18  7  1  0  0  0  0
  8  9  1  1  0  0  0
  8 10  1  0  0  0  0
  8 34  1  6  0  0  0
  9 35  1  0  0  0  0
  9 36  1  0  0  0  0
  9 37  1  0  0  0  0
 10 11  1  0  0  0  0
 10 38  1  0  0  0  0
 10 39  1  0  0  0  0
 12 11  1  0  0  0  0
 11 40  1  0  0  0  0
 11 41  1  0  0  0  0
 12 23  1  6  0  0  0
 12 13  1  0  0  0  0
 18 12  1  0  0  0  0
 13 14  1  1  0  0  0
 13 15  1  0  0  0  0
 13 42  1  6  0  0  0
 14 43  1  0  0  0  0
 14 44  1  0  0  0  0
 14 45  1  0  0  0  0
 15 24  1  6  0  0  0
 15 16  1  1  0  0  0
 15 17  1  0  0  0  0
 16 46  1  0  0  0  0
 18 19  1  6  0  0  0
 19 20  1  0  0  0  0
M  END
