
  Mrv171c004271813302D          

 71 74  0  0  0  0            999 V2000
    0.0328   -5.4228    0.0000 C   0  0  0  0  0  0  0  0  0  0  0  0
   -0.7073   -5.0582    0.0000 C   0  0  0  0  0  0  0  0  0  0  0  0
   -0.7616   -4.2350    0.0000 N   0  0  0  0  0  0  0  0  0  0  0  0
   -0.0758   -3.7764    0.0000 C   0  0  0  0  0  0  0  0  0  0  0  0
   -0.1301   -2.9532    0.0000 C   0  0  0  0  0  0  0  0  0  0  0  0
   -1.5016   -3.8704    0.0000 C   0  0  0  0  0  0  0  0  0  0  0  0
   -2.1874   -4.3291    0.0000 O   0  0  0  0  0  0  0  0  0  0  0  0
   -1.5560   -3.0472    0.0000 C   0  0  0  0  0  0  0  0  0  0  0  0
   -2.2960   -2.6826    0.0000 C   0  0  0  0  0  0  0  0  0  0  0  0
   -2.3503   -1.8594    0.0000 C   0  0  0  0  0  0  0  0  0  0  0  0
   -1.6646   -1.4008    0.0000 C   0  0  0  0  0  0  0  0  0  0  0  0
   -1.7189   -0.5776    0.0000 C   0  0  0  0  0  0  0  0  0  0  0  0
   -2.4590   -0.2130    0.0000 O   0  0  0  0  0  0  0  0  0  0  0  0
   -1.0331   -0.1189    0.0000 O   0  0  0  0  0  0  0  0  0  0  0  0
   -1.0874    0.7043    0.0000 C   0  0  0  0  0  0  0  0  0  0  0  0
   -0.4017    1.1629    0.0000 C   0  0  0  0  0  0  0  0  0  0  0  0
   -0.4560    1.9861    0.0000 C   0  0  2  0  0  0  0  0  0  0  0  0
   -1.2842    2.1774    0.0000 C   0  0  0  0  0  0  0  0  0  0  0  0
   -1.4158    3.0124    0.0000 C   0  0  0  0  0  0  0  0  0  0  0  0
   -0.6870    3.4510    0.0000 C   0  0  0  0  0  0  0  0  0  0  0  0
    0.1304    3.1741    0.0000 C   0  0  2  0  0  0  0  0  0  0  0  0
    0.6944    3.8779    0.0000 C   0  0  0  0  0  0  0  0  0  0  0  0
    1.5859    4.0575    0.0000 C   0  0  0  0  0  0  0  0  0  0  0  0
    2.1212    3.3085    0.0000 C   0  0  1  0  0  0  0  0  0  0  0  0
    2.9221    3.5063    0.0000 C   0  0  0  0  0  0  0  0  0  0  0  0
    1.3458    3.4063    0.0000 O   0  0  0  0  0  0  0  0  0  0  0  0
    1.0380    2.6898    0.0000 O   0  0  0  0  0  0  0  0  0  0  0  0
    0.3512    2.2888    0.0000 C   0  0  1  0  0  0  0  0  0  0  0  0
    1.2167    1.9843    0.0000 C   0  0  1  0  0  0  0  0  0  0  0  0
    1.2837    1.1620    0.0000 O   0  0  0  0  0  0  0  0  0  0  0  0
    2.0293    0.8089    0.0000 C   0  0  0  0  0  0  0  0  0  0  0  0
    1.9982    2.4122    0.0000 O   0  0  0  0  0  0  0  0  0  0  0  0
   -0.9245   -1.7654    0.0000 C   0  0  0  0  0  0  0  0  0  0  0  0
   -0.8702   -2.5886    0.0000 C   0  0  0  0  0  0  0  0  0  0  0  0
   -0.5103    2.8093    0.0000 H   0  0  0  0  0  0  0  0  0  0  0  0
    0.9363    2.9976    0.0000 H   0  0  0  0  0  0  0  0  0  0  0  0
    1.9429    1.5929    0.0000 H   0  0  0  0  0  0  0  0  0  0  0  0
   -0.3318   -6.1629    0.0000 H   0  0  0  0  0  0  0  0  0  0  0  0
    0.7729   -5.7874    0.0000 H   0  0  0  0  0  0  0  0  0  0  0  0
    0.3974   -4.6827    0.0000 H   0  0  0  0  0  0  0  0  0  0  0  0
   -1.5259   -5.1603    0.0000 H   0  0  0  0  0  0  0  0  0  0  0  0
   -1.1142   -5.7758    0.0000 H   0  0  0  0  0  0  0  0  0  0  0  0
    0.4219   -4.4343    0.0000 H   0  0  0  0  0  0  0  0  0  0  0  0
    0.7492   -3.7700    0.0000 H   0  0  0  0  0  0  0  0  0  0  0  0
    0.6100   -3.3177    0.0000 H   0  0  0  0  0  0  0  0  0  0  0  0
    0.5557   -2.4945    0.0000 H   0  0  0  0  0  0  0  0  0  0  0  0
   -0.1844   -2.1299    0.0000 H   0  0  0  0  0  0  0  0  0  0  0  0
   -2.9818   -3.1413    0.0000 H   0  0  0  0  0  0  0  0  0  0  0  0
   -3.0904   -1.4949    0.0000 H   0  0  0  0  0  0  0  0  0  0  0  0
   -1.5852    1.3622    0.0000 H   0  0  0  0  0  0  0  0  0  0  0  0
   -1.9124    0.6979    0.0000 H   0  0  0  0  0  0  0  0  0  0  0  0
    0.0961    0.5050    0.0000 H   0  0  0  0  0  0  0  0  0  0  0  0
    0.4233    1.1693    0.0000 H   0  0  0  0  0  0  0  0  0  0  0  0
   -2.1052    2.2587    0.0000 H   0  0  0  0  0  0  0  0  0  0  0  0
   -0.8922    1.4515    0.0000 H   0  0  0  0  0  0  0  0  0  0  0  0
   -1.9176    3.6673    0.0000 H   0  0  0  0  0  0  0  0  0  0  0  0
   -2.2400    2.9757    0.0000 H   0  0  0  0  0  0  0  0  0  0  0  0
   -0.4134    4.2294    0.0000 H   0  0  0  0  0  0  0  0  0  0  0  0
   -1.1204    4.1530    0.0000 H   0  0  0  0  0  0  0  0  0  0  0  0
    0.5952    4.6969    0.0000 H   0  0  0  0  0  0  0  0  0  0  0  0
    0.0123    4.3419    0.0000 H   0  0  0  0  0  0  0  0  0  0  0  0
    2.2070    4.6004    0.0000 H   0  0  0  0  0  0  0  0  0  0  0  0
    1.5027    4.8783    0.0000 H   0  0  0  0  0  0  0  0  0  0  0  0
    3.1199    2.7053    0.0000 H   0  0  0  0  0  0  0  0  0  0  0  0
    3.7231    3.7041    0.0000 H   0  0  0  0  0  0  0  0  0  0  0  0
    2.7244    4.3072    0.0000 H   0  0  0  0  0  0  0  0  0  0  0  0
    1.4998    0.1763    0.0000 H   0  0  0  0  0  0  0  0  0  0  0  0
    2.5081    0.1371    0.0000 H   0  0  0  0  0  0  0  0  0  0  0  0
    2.8001    1.1030    0.0000 H   0  0  0  0  0  0  0  0  0  0  0  0
   -0.5599   -1.0253    0.0000 H   0  0  0  0  0  0  0  0  0  0  0  0
   -0.8159   -3.4118    0.0000 H   0  0  0  0  0  0  0  0  0  0  0  0
  1  2  1  0  0  0  0
  1 38  1  0  0  0  0
  1 39  1  0  0  0  0
  1 40  1  0  0  0  0
  2  3  1  0  0  0  0
  2 41  1  0  0  0  0
  2 42  1  0  0  0  0
  3  4  1  0  0  0  0
  3  6  1  0  0  0  0
  4  5  1  0  0  0  0
  4 43  1  0  0  0  0
  4 44  1  0  0  0  0
  5 45  1  0  0  0  0
  5 46  1  0  0  0  0
  5 47  1  0  0  0  0
  6  7  2  0  0  0  0
  6  8  1  0  0  0  0
  8  9  1  0  0  0  0
  8 34  2  0  0  0  0
  9 10  2  0  0  0  0
  9 48  1  0  0  0  0
 10 11  1  0  0  0  0
 10 49  1  0  0  0  0
 11 12  1  0  0  0  0
 11 33  2  0  0  0  0
 12 13  2  0  0  0  0
 12 14  1  0  0  0  0
 14 15  1  0  0  0  0
 15 16  1  0  0  0  0
 15 50  1  0  0  0  0
 15 51  1  0  0  0  0
 17 16  1  0  0  0  0
 16 52  1  0  0  0  0
 16 53  1  0  0  0  0
 17 35  1  1  0  0  0
 17 18  1  6  0  0  0
 28 17  1  0  0  0  0
 18 19  1  0  0  0  0
 18 54  1  0  0  0  0
 18 55  1  0  0  0  0
 19 20  1  0  0  0  0
 19 56  1  0  0  0  0
 19 57  1  0  0  0  0
 21 20  1  0  0  0  0
 20 58  1  0  0  0  0
 20 59  1  0  0  0  0
 21 36  1  1  0  0  0
 21 22  1  0  0  0  0
 28 21  1  0  0  0  0
 22 23  1  0  0  0  0
 22 60  1  0  0  0  0
 22 61  1  0  0  0  0
 24 23  1  0  0  0  0
 23 62  1  0  0  0  0
 23 63  1  0  0  0  0
 24 25  1  1  0  0  0
 24 26  1  0  0  0  0
 24 32  1  0  0  0  0
 25 64  1  0  0  0  0
 25 65  1  0  0  0  0
 25 66  1  0  0  0  0
 26 27  1  0  0  0  0
 28 27  1  1  0  0  0
 28 29  1  0  0  0  0
 29 37  1  1  0  0  0
 29 30  1  0  0  0  0
 29 32  1  0  0  0  0
 30 31  1  0  0  0  0
 31 67  1  0  0  0  0
 31 68  1  0  0  0  0
 31 69  1  0  0  0  0
 33 34  1  0  0  0  0
 33 70  1  0  0  0  0
 34 71  1  0  0  0  0
M  END
