
  Mrv171c004271813302D          

 39 42  0  0  0  0            999 V2000
   -0.3521   -3.2236    0.0000 C   0  0  0  0  0  0  0  0  0  0  0  0
   -0.9568   -2.6625    0.0000 C   0  0  0  0  0  0  0  0  0  0  0  0
   -0.7733   -1.8581    0.0000 C   0  0  0  0  0  0  0  0  0  0  0  0
    0.0151   -1.6150    0.0000 C   0  0  0  0  0  0  0  0  0  0  0  0
    0.1987   -0.8107    0.0000 C   0  0  1  0  0  0  0  0  0  0  0  0
   -0.4463   -0.2963    0.0000 C   0  0  0  0  0  0  0  0  0  0  0  0
   -0.4463    0.5287    0.0000 C   0  0  0  0  0  0  0  0  0  0  0  0
    0.1987    1.0431    0.0000 C   0  0  1  0  0  0  0  0  0  0  0  0
    0.0151    1.8474    0.0000 C   0  0  0  0  0  0  0  0  0  0  0  0
   -0.7733    2.0906    0.0000 C   0  0  0  0  0  0  0  0  0  0  0  0
   -0.9568    2.8949    0.0000 C   0  0  0  0  0  0  0  0  0  0  0  0
   -0.3521    3.4560    0.0000 C   0  0  0  0  0  0  0  0  0  0  0  0
    0.4363    3.2129    0.0000 C   0  0  0  0  0  0  0  0  0  0  0  0
    0.6199    2.4086    0.0000 C   0  0  0  0  0  0  0  0  0  0  0  0
    1.0030    0.8595    0.0000 C   0  0  0  0  0  0  0  0  0  0  0  0
    1.3609    0.1162    0.0000 O   0  0  0  0  0  0  0  0  0  0  0  0
    1.0030   -0.6271    0.0000 C   0  0  0  0  0  0  0  0  0  0  0  0
    0.3531    0.4252    0.0000 O   0  0  0  0  0  0  0  0  0  0  0  0
    0.3531   -0.1927    0.0000 O   0  0  0  0  0  0  0  0  0  0  0  0
    0.6199   -2.1761    0.0000 C   0  0  0  0  0  0  0  0  0  0  0  0
    0.4363   -2.9804    0.0000 C   0  0  0  0  0  0  0  0  0  0  0  0
   -0.5357   -4.0279    0.0000 H   0  0  0  0  0  0  0  0  0  0  0  0
   -1.7452   -2.9056    0.0000 H   0  0  0  0  0  0  0  0  0  0  0  0
   -1.3780   -1.2970    0.0000 H   0  0  0  0  0  0  0  0  0  0  0  0
   -1.2713   -0.2963    0.0000 H   0  0  0  0  0  0  0  0  0  0  0  0
   -0.9607   -0.9413    0.0000 H   0  0  0  0  0  0  0  0  0  0  0  0
   -0.9607    1.1737    0.0000 H   0  0  0  0  0  0  0  0  0  0  0  0
   -1.2713    0.5287    0.0000 H   0  0  0  0  0  0  0  0  0  0  0  0
   -1.5982    2.0812    0.0000 H   0  0  0  0  0  0  0  0  0  0  0  0
   -1.7452    3.1381    0.0000 H   0  0  0  0  0  0  0  0  0  0  0  0
   -0.5357    4.2604    0.0000 H   0  0  0  0  0  0  0  0  0  0  0  0
    1.0410    3.7740    0.0000 H   0  0  0  0  0  0  0  0  0  0  0  0
    1.4082    2.1654    0.0000 H   0  0  0  0  0  0  0  0  0  0  0  0
    1.7463    1.2175    0.0000 H   0  0  0  0  0  0  0  0  0  0  0  0
    1.1866    1.6638    0.0000 H   0  0  0  0  0  0  0  0  0  0  0  0
    1.1866   -1.4314    0.0000 H   0  0  0  0  0  0  0  0  0  0  0  0
    1.7463   -0.9850    0.0000 H   0  0  0  0  0  0  0  0  0  0  0  0
    1.3672   -2.5256    0.0000 H   0  0  0  0  0  0  0  0  0  0  0  0
    1.0410   -3.5416    0.0000 H   0  0  0  0  0  0  0  0  0  0  0  0
  1  2  1  0  0  0  0
  1 21  2  0  0  0  0
  1 22  1  0  0  0  0
  2  3  2  0  0  0  0
  2 23  1  0  0  0  0
  3  4  1  0  0  0  0
  3 24  1  0  0  0  0
  5  4  1  6  0  0  0
  4 20  2  0  0  0  0
  5  6  1  0  0  0  0
  5 17  1  0  0  0  0
  5 19  1  0  0  0  0
  6  7  1  0  0  0  0
  6 25  1  0  0  0  0
  6 26  1  0  0  0  0
  8  7  1  0  0  0  0
  7 27  1  0  0  0  0
  7 28  1  0  0  0  0
  8  9  1  6  0  0  0
  8 15  1  0  0  0  0
  8 18  1  0  0  0  0
  9 10  1  0  0  0  0
  9 14  2  0  0  0  0
 10 11  2  0  0  0  0
 10 29  1  0  0  0  0
 11 12  1  0  0  0  0
 11 30  1  0  0  0  0
 12 13  2  0  0  0  0
 12 31  1  0  0  0  0
 13 14  1  0  0  0  0
 13 32  1  0  0  0  0
 14 33  1  0  0  0  0
 15 16  1  0  0  0  0
 15 34  1  0  0  0  0
 15 35  1  0  0  0  0
 16 17  1  0  0  0  0
 17 36  1  0  0  0  0
 17 37  1  0  0  0  0
 18 19  1  0  0  0  0
 20 21  1  0  0  0  0
 20 38  1  0  0  0  0
 21 39  1  0  0  0  0
M  END
