
  Mrv171c004271813302D          

 50 54  0  0  0  0            999 V2000
    1.1102   -2.1102    0.0000 C   0  0  0  0  0  0  0  0  0  0  0  0
    0.4218   -1.6555    0.0000 C   0  0  1  0  0  0  0  0  0  0  0  0
   -0.2974   -2.0867    0.0000 C   0  0  0  0  0  0  0  0  0  0  0  0
   -0.8610   -1.4672    0.0000 C   0  0  0  0  0  0  0  0  0  0  0  0
   -0.7648   -0.6123    0.0000 C   0  0  1  0  0  0  0  0  0  0  0  0
   -1.5975   -0.3796    0.0000 C   0  0  1  0  0  0  0  0  0  0  0  0
   -2.1577   -0.9852    0.0000 C   0  0  0  0  0  0  0  0  0  0  0  0
   -1.8860    0.4105    0.0000 C   0  0  0  0  0  0  0  0  0  0  0  0
   -2.6685    0.6719    0.0000 O   0  0  0  0  0  0  0  0  0  0  0  0
   -1.1809    0.8681    0.0000 N   0  0  0  0  0  0  0  0  0  0  0  0
   -1.2858    1.6864    0.0000 C   0  0  0  0  0  0  0  0  0  0  0  0
   -2.0094    2.0825    0.0000 C   0  0  0  0  0  0  0  0  0  0  0  0
   -1.8563    2.8932    0.0000 C   0  0  0  0  0  0  0  0  0  0  0  0
   -1.0380    2.9981    0.0000 C   0  0  0  0  0  0  0  0  0  0  0  0
   -0.6854    2.2523    0.0000 O   0  0  0  0  0  0  0  0  0  0  0  0
   -0.3660    0.5975    0.0000 C   0  0  2  0  0  0  0  0  0  0  0  0
    0.5666    0.3768    0.0000 O   0  0  0  0  0  0  0  0  0  0  0  0
    1.3987    0.5897    0.0000 C   0  0  1  0  0  0  0  0  0  0  0  0
    2.0841    1.0488    0.0000 C   0  0  0  0  0  0  0  0  0  0  0  0
    1.8844   -0.1080    0.0000 C   0  0  0  0  0  0  0  0  0  0  0  0
    1.3956   -0.7971    0.0000 C   0  0  0  0  0  0  0  0  0  0  0  0
    0.5382   -0.8083    0.0000 C   0  0  2  0  0  0  0  0  0  0  0  0
   -0.0225   -0.1128    0.0000 C   0  0  1  0  0  0  0  0  0  0  0  0
    0.2161    0.8380    0.0000 O   0  0  0  0  0  0  0  0  0  0  0  0
    0.9423    1.2984    0.0000 O   0  0  0  0  0  0  0  0  0  0  0  0
   -1.3727   -1.1734    0.0000 H   0  0  0  0  0  0  0  0  0  0  0  0
   -0.2567   -1.0291    0.0000 H   0  0  0  0  0  0  0  0  0  0  0  0
    0.6556   -2.7986    0.0000 H   0  0  0  0  0  0  0  0  0  0  0  0
    1.7986   -2.5648    0.0000 H   0  0  0  0  0  0  0  0  0  0  0  0
    1.5648   -1.4217    0.0000 H   0  0  0  0  0  0  0  0  0  0  0  0
    1.1733   -1.3152    0.0000 H   0  0  0  0  0  0  0  0  0  0  0  0
   -0.7953   -2.7445    0.0000 H   0  0  0  0  0  0  0  0  0  0  0  0
   -0.0105   -2.8602    0.0000 H   0  0  0  0  0  0  0  0  0  0  0  0
   -1.6790   -1.3599    0.0000 H   0  0  0  0  0  0  0  0  0  0  0  0
   -1.4609   -2.0335    0.0000 H   0  0  0  0  0  0  0  0  0  0  0  0
   -0.8962    0.2022    0.0000 H   0  0  0  0  0  0  0  0  0  0  0  0
   -2.5182   -0.2431    0.0000 H   0  0  0  0  0  0  0  0  0  0  0  0
   -2.9801   -1.0512    0.0000 H   0  0  0  0  0  0  0  0  0  0  0  0
   -2.3952   -1.7753    0.0000 H   0  0  0  0  0  0  0  0  0  0  0  0
   -2.7553    1.7299    0.0000 H   0  0  0  0  0  0  0  0  0  0  0  0
   -2.4222    3.4936    0.0000 H   0  0  0  0  0  0  0  0  0  0  0  0
   -0.6419    3.7218    0.0000 H   0  0  0  0  0  0  0  0  0  0  0  0
   -0.3954    1.4220    0.0000 H   0  0  0  0  0  0  0  0  0  0  0  0
    2.5432    0.3634    0.0000 H   0  0  0  0  0  0  0  0  0  0  0  0
    2.7696    1.5080    0.0000 H   0  0  0  0  0  0  0  0  0  0  0  0
    1.6250    1.7343    0.0000 H   0  0  0  0  0  0  0  0  0  0  0  0
    2.1434   -0.8913    0.0000 H   0  0  0  0  0  0  0  0  0  0  0  0
    2.6688   -0.3638    0.0000 H   0  0  0  0  0  0  0  0  0  0  0  0
    1.2997    0.0223    0.0000 H   0  0  0  0  0  0  0  0  0  0  0  0
    0.7757   -0.2527    0.0000 H   0  0  0  0  0  0  0  0  0  0  0  0
  2  1  1  1  0  0  0
  1 28  1  0  0  0  0
  1 29  1  0  0  0  0
  1 30  1  0  0  0  0
  2  3  1  0  0  0  0
 22  2  1  0  0  0  0
  2 31  1  6  0  0  0
  3  4  1  0  0  0  0
  3 32  1  0  0  0  0
  3 33  1  0  0  0  0
  5  4  1  0  0  0  0
  4 34  1  0  0  0  0
  4 35  1  0  0  0  0
  5  6  1  0  0  0  0
 23  5  1  0  0  0  0
  5 36  1  6  0  0  0
  6 26  1  6  0  0  0
  6  7  1  1  0  0  0
  6  8  1  0  0  0  0
  7 37  1  0  0  0  0
  7 38  1  0  0  0  0
  7 39  1  0  0  0  0
  8  9  2  0  0  0  0
  8 10  1  0  0  0  0
 10 11  1  0  0  0  0
 16 10  1  0  0  0  0
 11 12  2  0  0  0  0
 11 15  1  0  0  0  0
 12 13  1  0  0  0  0
 12 40  1  0  0  0  0
 13 14  2  0  0  0  0
 13 41  1  0  0  0  0
 14 15  1  0  0  0  0
 14 42  1  0  0  0  0
 16 17  1  0  0  0  0
 23 16  1  0  0  0  0
 16 43  1  1  0  0  0
 18 17  1  0  0  0  0
 18 19  1  1  0  0  0
 18 20  1  0  0  0  0
 18 25  1  0  0  0  0
 19 44  1  0  0  0  0
 19 45  1  0  0  0  0
 19 46  1  0  0  0  0
 20 21  1  0  0  0  0
 20 47  1  0  0  0  0
 20 48  1  0  0  0  0
 22 21  1  0  0  0  0
 21 49  1  0  0  0  0
 21 50  1  0  0  0  0
 22 27  1  6  0  0  0
 23 22  1  0  0  0  0
 23 24  1  6  0  0  0
 24 25  1  0  0  0  0
M  END
