
  Mrv171c004271813302D          

 42 45  0  0  0  0            999 V2000
    1.3743   -1.3021    0.0000 C   0  0  0  0  0  0  0  0  0  0  0  0
    0.6410   -0.9240    0.0000 C   0  0  1  0  0  0  0  0  0  0  0  0
   -0.0583   -1.3390    0.0000 C   0  0  0  0  0  0  0  0  0  0  0  0
   -0.7981   -0.9695    0.0000 C   0  0  0  0  0  0  0  0  0  0  0  0
   -0.8436   -0.1383    0.0000 C   0  0  1  0  0  0  0  0  0  0  0  0
   -1.6505    0.0524    0.0000 C   0  0  1  0  0  0  0  0  0  0  0  0
   -2.2183   -0.5462    0.0000 C   0  0  0  0  0  0  0  0  0  0  0  0
   -1.8826    0.8449    0.0000 C   0  0  0  0  0  0  0  0  0  0  0  0
   -2.6884    1.0219    0.0000 O   0  0  0  0  0  0  0  0  0  0  0  0
   -1.3449    1.4611    0.0000 N   0  0  0  0  0  0  0  0  0  0  0  0
   -0.5480    1.2549    0.0000 C   0  0  2  0  0  0  0  0  0  0  0  0
    0.0389    1.9056    0.0000 O   0  0  0  0  0  0  0  0  0  0  0  0
    0.7904    1.5091    0.0000 C   0  0  1  0  0  0  0  0  0  0  0  0
    1.2288    2.2079    0.0000 C   0  0  0  0  0  0  0  0  0  0  0  0
    1.4792    1.0016    0.0000 C   0  0  0  0  0  0  0  0  0  0  0  0
    1.4030    0.1621    0.0000 C   0  0  0  0  0  0  0  0  0  0  0  0
    0.5726   -0.1014    0.0000 C   0  0  2  0  0  0  0  0  0  0  0  0
   -0.1896    0.4131    0.0000 C   0  0  1  0  0  0  0  0  0  0  0  0
    0.3079    0.9036    0.0000 O   0  0  0  0  0  0  0  0  0  0  0  0
   -1.4147   -0.7382    0.0000 H   0  0  0  0  0  0  0  0  0  0  0  0
   -0.1393   -0.5185    0.0000 H   0  0  0  0  0  0  0  0  0  0  0  0
    0.9962   -2.0354    0.0000 H   0  0  0  0  0  0  0  0  0  0  0  0
    2.1075   -1.6803    0.0000 H   0  0  0  0  0  0  0  0  0  0  0  0
    1.7524   -0.5689    0.0000 H   0  0  0  0  0  0  0  0  0  0  0  0
    1.3271   -0.4658    0.0000 H   0  0  0  0  0  0  0  0  0  0  0  0
   -0.3976   -2.0910    0.0000 H   0  0  0  0  0  0  0  0  0  0  0  0
    0.3345   -2.0645    0.0000 H   0  0  0  0  0  0  0  0  0  0  0  0
   -1.6177   -1.0642    0.0000 H   0  0  0  0  0  0  0  0  0  0  0  0
   -1.2106   -1.6840    0.0000 H   0  0  0  0  0  0  0  0  0  0  0  0
   -1.0351    0.6642    0.0000 H   0  0  0  0  0  0  0  0  0  0  0  0
   -2.5629    0.2033    0.0000 H   0  0  0  0  0  0  0  0  0  0  0  0
   -3.0422   -0.5875    0.0000 H   0  0  0  0  0  0  0  0  0  0  0  0
   -2.4862   -1.3265    0.0000 H   0  0  0  0  0  0  0  0  0  0  0  0
   -1.5888    2.2493    0.0000 H   0  0  0  0  0  0  0  0  0  0  0  0
   -0.7854    2.0450    0.0000 H   0  0  0  0  0  0  0  0  0  0  0  0
    1.9277    1.7695    0.0000 H   0  0  0  0  0  0  0  0  0  0  0  0
    1.6672    2.9068    0.0000 H   0  0  0  0  0  0  0  0  0  0  0  0
    0.5300    2.6463    0.0000 H   0  0  0  0  0  0  0  0  0  0  0  0
    2.2650    0.7503    0.0000 H   0  0  0  0  0  0  0  0  0  0  0  0
    0.7268    0.6632    0.0000 H   0  0  0  0  0  0  0  0  0  0  0  0
    2.2010   -0.0472    0.0000 H   0  0  0  0  0  0  0  0  0  0  0  0
    2.0783    0.6360    0.0000 H   0  0  0  0  0  0  0  0  0  0  0  0
  2  1  1  0  0  0  0
  1 22  1  0  0  0  0
  1 23  1  0  0  0  0
  1 24  1  0  0  0  0
  2  3  1  0  0  0  0
 17  2  1  0  0  0  0
  2 25  1  6  0  0  0
  3  4  1  0  0  0  0
  3 26  1  0  0  0  0
  3 27  1  0  0  0  0
  5  4  1  0  0  0  0
  4 28  1  0  0  0  0
  4 29  1  0  0  0  0
  5  6  1  0  0  0  0
 18  5  1  0  0  0  0
  5 30  1  6  0  0  0
  6 20  1  6  0  0  0
  6  7  1  0  0  0  0
  6  8  1  0  0  0  0
  7 31  1  0  0  0  0
  7 32  1  0  0  0  0
  7 33  1  0  0  0  0
  8  9  2  0  0  0  0
  8 10  1  0  0  0  0
 11 10  1  0  0  0  0
 10 34  1  0  0  0  0
 11 12  1  0  0  0  0
 18 11  1  0  0  0  0
 11 35  1  1  0  0  0
 13 12  1  0  0  0  0
 13 14  1  6  0  0  0
 13 15  1  0  0  0  0
 13 19  1  0  0  0  0
 14 36  1  0  0  0  0
 14 37  1  0  0  0  0
 14 38  1  0  0  0  0
 15 16  1  0  0  0  0
 15 39  1  0  0  0  0
 15 40  1  0  0  0  0
 17 16  1  0  0  0  0
 16 41  1  0  0  0  0
 16 42  1  0  0  0  0
 17 21  1  6  0  0  0
 18 17  1  0  0  0  0
 18 19  1  6  0  0  0
M  END
