
  Mrv171c004271813302D          

 72 75  0  0  0  0            999 V2000
   -0.9429    0.9926    0.0000 C   0  0  0  0  0  0  0  0  0  0  0  0
   -1.6237    1.4586    0.0000 O   0  0  0  0  0  0  0  0  0  0  0  0
   -1.5605    2.2812    0.0000 C   0  0  1  0  0  0  0  0  0  0  0  0
   -2.2871    2.8105    0.0000 O   0  0  0  0  0  0  0  0  0  0  0  0
   -2.4042    3.7016    0.0000 C   0  0  1  0  0  0  0  0  0  0  0  0
   -3.2044    3.9022    0.0000 C   0  0  0  0  0  0  0  0  0  0  0  0
   -1.8833    4.4283    0.0000 C   0  0  0  0  0  0  0  0  0  0  0  0
   -0.9996    4.3341    0.0000 C   0  0  0  0  0  0  0  0  0  0  0  0
   -0.5088    3.5819    0.0000 C   0  0  1  0  0  0  0  0  0  0  0  0
    0.2748    3.9417    0.0000 C   0  0  0  0  0  0  0  0  0  0  0  0
    0.8479    3.3314    0.0000 C   0  0  0  0  0  0  0  0  0  0  0  0
    0.6870    2.5065    0.0000 C   0  0  0  0  0  0  0  0  0  0  0  0
   -0.0784    2.1651    0.0000 C   0  0  1  0  0  0  0  0  0  0  0  0
   -0.1831    1.3468    0.0000 C   0  0  0  0  0  0  0  0  0  0  0  0
    0.4732    0.8470    0.0000 C   0  0  0  0  0  0  0  0  0  0  0  0
    0.3686    0.0286    0.0000 O   0  0  0  0  0  0  0  0  0  0  0  0
    1.0249   -0.4712    0.0000 C   0  0  0  0  0  0  0  0  0  0  0  0
    1.7860   -0.1527    0.0000 O   0  0  0  0  0  0  0  0  0  0  0  0
    0.9203   -1.2895    0.0000 C   0  0  0  0  0  0  0  0  0  0  0  0
    1.5766   -1.7893    0.0000 C   0  0  0  0  0  0  0  0  0  0  0  0
    1.4720   -2.6077    0.0000 C   0  0  0  0  0  0  0  0  0  0  0  0
    0.7109   -2.9262    0.0000 C   0  0  0  0  0  0  0  0  0  0  0  0
    0.6063   -3.7445    0.0000 C   0  0  0  0  0  0  0  0  0  0  0  0
   -0.1548   -4.0630    0.0000 O   0  0  0  0  0  0  0  0  0  0  0  0
    1.2626   -4.2443    0.0000 O   0  0  0  0  0  0  0  0  0  0  0  0
    1.1580   -5.0627    0.0000 C   0  0  0  0  0  0  0  0  0  0  0  0
    1.8143   -5.5625    0.0000 C   0  0  0  0  0  0  0  0  0  0  0  0
    1.7097   -6.3808    0.0000 N   0  0  0  0  0  0  0  0  0  0  0  0
    2.3660   -6.8806    0.0000 C   0  0  0  0  0  0  0  0  0  0  0  0
    0.9486   -6.6993    0.0000 C   0  0  0  0  0  0  0  0  0  0  0  0
    0.0546   -2.4264    0.0000 C   0  0  0  0  0  0  0  0  0  0  0  0
    0.1592   -1.6080    0.0000 C   0  0  0  0  0  0  0  0  0  0  0  0
   -0.7483    2.7002    0.0000 C   0  0  1  0  0  0  0  0  0  0  0  0
   -1.4795    2.9833    0.0000 O   0  0  0  0  0  0  0  0  0  0  0  0
   -1.6103    3.7500    0.0000 O   0  0  0  0  0  0  0  0  0  0  0  0
   -0.8730    1.8252    0.0000 H   0  0  0  0  0  0  0  0  0  0  0  0
   -1.3237    3.4534    0.0000 H   0  0  0  0  0  0  0  0  0  0  0  0
    0.5837    1.6729    0.0000 H   0  0  0  0  0  0  0  0  0  0  0  0
   -1.6879    0.6381    0.0000 H   0  0  0  0  0  0  0  0  0  0  0  0
   -1.0106    0.1704    0.0000 H   0  0  0  0  0  0  0  0  0  0  0  0
   -0.2659    0.5211    0.0000 H   0  0  0  0  0  0  0  0  0  0  0  0
   -3.0038    4.7025    0.0000 H   0  0  0  0  0  0  0  0  0  0  0  0
   -4.0047    4.1029    0.0000 H   0  0  0  0  0  0  0  0  0  0  0  0
   -3.4051    3.1020    0.0000 H   0  0  0  0  0  0  0  0  0  0  0  0
   -1.8463    5.2524    0.0000 H   0  0  0  0  0  0  0  0  0  0  0  0
   -2.5232    4.9490    0.0000 H   0  0  0  0  0  0  0  0  0  0  0  0
   -0.3068    4.7819    0.0000 H   0  0  0  0  0  0  0  0  0  0  0  0
   -0.9158    5.1548    0.0000 H   0  0  0  0  0  0  0  0  0  0  0  0
    0.7941    4.5828    0.0000 H   0  0  0  0  0  0  0  0  0  0  0  0
    0.0353    4.7312    0.0000 H   0  0  0  0  0  0  0  0  0  0  0  0
    1.6605    3.1889    0.0000 H   0  0  0  0  0  0  0  0  0  0  0  0
    1.4599    3.8846    0.0000 H   0  0  0  0  0  0  0  0  0  0  0  0
    1.0409    1.7613    0.0000 H   0  0  0  0  0  0  0  0  0  0  0  0
    1.4928    2.3295    0.0000 H   0  0  0  0  0  0  0  0  0  0  0  0
   -0.5185    2.1006    0.0000 H   0  0  0  0  0  0  0  0  0  0  0  0
   -1.0051    1.4169    0.0000 H   0  0  0  0  0  0  0  0  0  0  0  0
    1.1287    0.3459    0.0000 H   0  0  0  0  0  0  0  0  0  0  0  0
    1.2355    1.1626    0.0000 H   0  0  0  0  0  0  0  0  0  0  0  0
    2.3377   -1.4708    0.0000 H   0  0  0  0  0  0  0  0  0  0  0  0
    2.1283   -3.1075    0.0000 H   0  0  0  0  0  0  0  0  0  0  0  0
    0.3349   -5.0057    0.0000 H   0  0  0  0  0  0  0  0  0  0  0  0
    0.6208   -5.6888    0.0000 H   0  0  0  0  0  0  0  0  0  0  0  0
    2.6374   -5.6194    0.0000 H   0  0  0  0  0  0  0  0  0  0  0  0
    2.3515   -4.9363    0.0000 H   0  0  0  0  0  0  0  0  0  0  0  0
    1.8662   -7.5370    0.0000 H   0  0  0  0  0  0  0  0  0  0  0  0
    3.0224   -7.3804    0.0000 H   0  0  0  0  0  0  0  0  0  0  0  0
    2.8658   -6.2242    0.0000 H   0  0  0  0  0  0  0  0  0  0  0  0
    0.6301   -5.9383    0.0000 H   0  0  0  0  0  0  0  0  0  0  0  0
    0.1876   -7.0178    0.0000 H   0  0  0  0  0  0  0  0  0  0  0  0
    1.2672   -7.4603    0.0000 H   0  0  0  0  0  0  0  0  0  0  0  0
   -0.7065   -2.7449    0.0000 H   0  0  0  0  0  0  0  0  0  0  0  0
   -0.4971   -1.1082    0.0000 H   0  0  0  0  0  0  0  0  0  0  0  0
  1  2  1  0  0  0  0
  1 39  1  0  0  0  0
  1 40  1  0  0  0  0
  1 41  1  0  0  0  0
  3  2  1  0  0  0  0
  3 36  1  6  0  0  0
  3  4  1  0  0  0  0
 33  3  1  0  0  0  0
  5  4  1  0  0  0  0
  5  6  1  6  0  0  0
  5  7  1  0  0  0  0
  5 35  1  0  0  0  0
  6 42  1  0  0  0  0
  6 43  1  0  0  0  0
  6 44  1  0  0  0  0
  7  8  1  0  0  0  0
  7 45  1  0  0  0  0
  7 46  1  0  0  0  0
  9  8  1  0  0  0  0
  8 47  1  0  0  0  0
  8 48  1  0  0  0  0
  9 37  1  6  0  0  0
  9 10  1  0  0  0  0
 33  9  1  0  0  0  0
 10 11  1  0  0  0  0
 10 49  1  0  0  0  0
 10 50  1  0  0  0  0
 11 12  1  0  0  0  0
 11 51  1  0  0  0  0
 11 52  1  0  0  0  0
 13 12  1  0  0  0  0
 12 53  1  0  0  0  0
 12 54  1  0  0  0  0
 13 38  1  6  0  0  0
 13 14  1  0  0  0  0
 33 13  1  0  0  0  0
 14 15  1  0  0  0  0
 14 55  1  0  0  0  0
 14 56  1  0  0  0  0
 15 16  1  0  0  0  0
 15 57  1  0  0  0  0
 15 58  1  0  0  0  0
 16 17  1  0  0  0  0
 17 18  2  0  0  0  0
 17 19  1  0  0  0  0
 19 20  1  0  0  0  0
 19 32  2  0  0  0  0
 20 21  2  0  0  0  0
 20 59  1  0  0  0  0
 21 22  1  0  0  0  0
 21 60  1  0  0  0  0
 22 23  1  0  0  0  0
 22 31  2  0  0  0  0
 23 24  2  0  0  0  0
 23 25  1  0  0  0  0
 25 26  1  0  0  0  0
 26 27  1  0  0  0  0
 26 61  1  0  0  0  0
 26 62  1  0  0  0  0
 27 28  1  0  0  0  0
 27 63  1  0  0  0  0
 27 64  1  0  0  0  0
 28 29  1  0  0  0  0
 28 30  1  0  0  0  0
 29 65  1  0  0  0  0
 29 66  1  0  0  0  0
 29 67  1  0  0  0  0
 30 68  1  0  0  0  0
 30 69  1  0  0  0  0
 30 70  1  0  0  0  0
 31 32  1  0  0  0  0
 31 71  1  0  0  0  0
 32 72  1  0  0  0  0
 33 34  1  6  0  0  0
 34 35  1  0  0  0  0
M  END
