
  Mrv171c004271813302D          

 45 44  0  0  0  0            999 V2000
   -1.4782   -3.3739    0.0000 C   0  0  0  0  0  0  0  0  0  0  0  0
   -1.4782   -2.5489    0.0000 C   0  0  0  0  0  0  0  0  0  0  0  0
   -0.7637   -2.1364    0.0000 C   0  0  2  0  0  0  0  0  0  0  0  0
   -0.0492   -2.5489    0.0000 O   0  0  0  0  0  0  0  0  0  0  0  0
   -0.7637   -1.3114    0.0000 O   0  0  0  0  0  0  0  0  0  0  0  0
   -0.0492   -0.8989    0.0000 C   0  0  0  0  0  0  0  0  0  0  0  0
   -0.0492   -0.0739    0.0000 C   0  0  0  0  0  0  0  0  0  0  0  0
    0.7758   -0.0739    0.0000 C   0  0  0  0  0  0  0  0  0  0  0  0
    1.1883    0.6405    0.0000 C   0  0  0  0  0  0  0  0  0  0  0  0
   -0.8742   -0.0739    0.0000 C   0  0  0  0  0  0  0  0  0  0  0  0
   -1.2867    0.6405    0.0000 C   0  0  0  0  0  0  0  0  0  0  0  0
   -0.0492    0.7511    0.0000 O   0  0  0  0  0  0  0  0  0  0  0  0
    0.6652    1.1636    0.0000 O   0  0  0  0  0  0  0  0  0  0  0  0
    0.6652    1.9886    0.0000 C   0  0  0  0  0  0  0  0  0  0  0  0
    0.6652    2.8136    0.0000 C   0  0  0  0  0  0  0  0  0  0  0  0
    1.4902    1.9886    0.0000 C   0  0  0  0  0  0  0  0  0  0  0  0
   -0.1598    1.9886    0.0000 C   0  0  0  0  0  0  0  0  0  0  0  0
   -0.7637   -2.9614    0.0000 H   0  0  0  0  0  0  0  0  0  0  0  0
   -2.3032   -3.3739    0.0000 H   0  0  0  0  0  0  0  0  0  0  0  0
   -1.4782   -4.1989    0.0000 H   0  0  0  0  0  0  0  0  0  0  0  0
   -0.6532   -3.3739    0.0000 H   0  0  0  0  0  0  0  0  0  0  0  0
   -1.9315   -1.8597    0.0000 H   0  0  0  0  0  0  0  0  0  0  0  0
   -2.3018   -2.5010    0.0000 H   0  0  0  0  0  0  0  0  0  0  0  0
    0.7758   -2.5489    0.0000 H   0  0  0  0  0  0  0  0  0  0  0  0
    0.4041   -1.5882    0.0000 H   0  0  0  0  0  0  0  0  0  0  0  0
    0.7744   -0.9469    0.0000 H   0  0  0  0  0  0  0  0  0  0  0  0
    1.5725   -0.2881    0.0000 H   0  0  0  0  0  0  0  0  0  0  0  0
    0.3633    0.6405    0.0000 H   0  0  0  0  0  0  0  0  0  0  0  0
    1.6466   -0.0454    0.0000 H   0  0  0  0  0  0  0  0  0  0  0  0
    2.0062    0.7482    0.0000 H   0  0  0  0  0  0  0  0  0  0  0  0
    1.4534    1.4217    0.0000 H   0  0  0  0  0  0  0  0  0  0  0  0
   -1.5635   -0.5273    0.0000 H   0  0  0  0  0  0  0  0  0  0  0  0
   -0.9222   -0.8975    0.0000 H   0  0  0  0  0  0  0  0  0  0  0  0
   -0.5723    1.0530    0.0000 H   0  0  0  0  0  0  0  0  0  0  0  0
   -1.6992    1.3550    0.0000 H   0  0  0  0  0  0  0  0  0  0  0  0
   -2.0012    0.2280    0.0000 H   0  0  0  0  0  0  0  0  0  0  0  0
    1.4902    2.8136    0.0000 H   0  0  0  0  0  0  0  0  0  0  0  0
    0.6652    3.6386    0.0000 H   0  0  0  0  0  0  0  0  0  0  0  0
   -0.1598    2.8136    0.0000 H   0  0  0  0  0  0  0  0  0  0  0  0
    2.0446    1.3775    0.0000 H   0  0  0  0  0  0  0  0  0  0  0  0
    2.3148    1.9618    0.0000 H   0  0  0  0  0  0  0  0  0  0  0  0
    2.0830    2.5624    0.0000 H   0  0  0  0  0  0  0  0  0  0  0  0
   -0.9220    2.3043    0.0000 H   0  0  0  0  0  0  0  0  0  0  0  0
   -0.7431    1.4052    0.0000 H   0  0  0  0  0  0  0  0  0  0  0  0
    0.1559    1.2264    0.0000 H   0  0  0  0  0  0  0  0  0  0  0  0
  1  2  1  0  0  0  0
  1 19  1  0  0  0  0
  1 20  1  0  0  0  0
  1 21  1  0  0  0  0
  3  2  1  0  0  0  0
  2 22  1  0  0  0  0
  2 23  1  0  0  0  0
  3 18  1  6  0  0  0
  3  4  1  0  0  0  0
  3  5  1  0  0  0  0
  4 24  1  0  0  0  0
  5  6  1  0  0  0  0
  6  7  1  0  0  0  0
  6 25  1  0  0  0  0
  6 26  1  0  0  0  0
  7  8  1  0  0  0  0
  7 10  1  0  0  0  0
  7 12  1  0  0  0  0
  8  9  1  0  0  0  0
  8 27  1  0  0  0  0
  8 28  1  0  0  0  0
  9 29  1  0  0  0  0
  9 30  1  0  0  0  0
  9 31  1  0  0  0  0
 10 11  1  0  0  0  0
 10 32  1  0  0  0  0
 10 33  1  0  0  0  0
 11 34  1  0  0  0  0
 11 35  1  0  0  0  0
 11 36  1  0  0  0  0
 12 13  1  0  0  0  0
 13 14  1  0  0  0  0
 14 15  1  0  0  0  0
 14 16  1  0  0  0  0
 14 17  1  0  0  0  0
 15 37  1  0  0  0  0
 15 38  1  0  0  0  0
 15 39  1  0  0  0  0
 16 40  1  0  0  0  0
 16 41  1  0  0  0  0
 16 42  1  0  0  0  0
 17 43  1  0  0  0  0
 17 44  1  0  0  0  0
 17 45  1  0  0  0  0
M  END
