
  Mrv171c004271813302D          

 50 52  0  0  0  0            999 V2000
   -4.4095    0.6271    0.0000 C   0  0  0  0  0  0  0  0  0  0  0  0
   -3.6950    0.2146    0.0000 C   0  0  0  0  0  0  0  0  0  0  0  0
   -2.9805    0.6271    0.0000 C   0  0  0  0  0  0  0  0  0  0  0  0
   -2.2661    0.2146    0.0000 O   0  0  0  0  0  0  0  0  0  0  0  0
   -1.5516    0.6271    0.0000 C   0  0  0  0  0  0  0  0  0  0  0  0
   -0.8371    0.2146    0.0000 C   0  0  0  0  0  0  0  0  0  0  0  0
   -0.1226    0.6271    0.0000 C   0  0  2  0  0  0  0  0  0  0  0  0
   -0.3170    1.4546    0.0000 C   0  0  0  0  0  0  0  0  0  0  0  0
    0.3738    1.9417    0.0000 C   0  0  0  0  0  0  0  0  0  0  0  0
    1.0894    1.4817    0.0000 C   0  0  0  0  0  0  0  0  0  0  0  0
    1.2022    0.6261    0.0000 C   0  0  2  0  0  0  0  0  0  0  0  0
    2.0828    0.4311    0.0000 C   0  0  0  0  0  0  0  0  0  0  0  0
    2.6378   -0.2892    0.0000 C   0  0  0  0  0  0  0  0  0  0  0  0
    2.2025   -1.1004    0.0000 C   0  0  1  0  0  0  0  0  0  0  0  0
    2.7338   -1.7315    0.0000 C   0  0  0  0  0  0  0  0  0  0  0  0
    1.9476   -0.3616    0.0000 O   0  0  0  0  0  0  0  0  0  0  0  0
    1.1688   -0.4021    0.0000 O   0  0  0  0  0  0  0  0  0  0  0  0
    0.5056    0.0368    0.0000 C   0  0  1  0  0  0  0  0  0  0  0  0
    0.6149   -0.8741    0.0000 C   0  0  1  0  0  0  0  0  0  0  0  0
   -0.0931   -1.2976    0.0000 O   0  0  0  0  0  0  0  0  0  0  0  0
   -0.0804   -2.1225    0.0000 C   0  0  0  0  0  0  0  0  0  0  0  0
    1.3441   -1.3861    0.0000 O   0  0  0  0  0  0  0  0  0  0  0  0
    0.5918    1.0396    0.0000 H   0  0  0  0  0  0  0  0  0  0  0  0
    1.4000   -0.1749    0.0000 H   0  0  0  0  0  0  0  0  0  0  0  0
    0.5847   -1.6986    0.0000 H   0  0  0  0  0  0  0  0  0  0  0  0
   -4.4095    1.4521    0.0000 H   0  0  0  0  0  0  0  0  0  0  0  0
   -5.1239    0.2146    0.0000 H   0  0  0  0  0  0  0  0  0  0  0  0
   -3.6950   -0.6104    0.0000 H   0  0  0  0  0  0  0  0  0  0  0  0
   -2.6103    1.3644    0.0000 H   0  0  0  0  0  0  0  0  0  0  0  0
   -3.3508    1.3644    0.0000 H   0  0  0  0  0  0  0  0  0  0  0  0
   -1.1813    1.3644    0.0000 H   0  0  0  0  0  0  0  0  0  0  0  0
   -1.9218    1.3644    0.0000 H   0  0  0  0  0  0  0  0  0  0  0  0
   -1.2074   -0.5226    0.0000 H   0  0  0  0  0  0  0  0  0  0  0  0
   -0.4669   -0.5226    0.0000 H   0  0  0  0  0  0  0  0  0  0  0  0
   -0.6069    2.2270    0.0000 H   0  0  0  0  0  0  0  0  0  0  0  0
   -0.7950    0.7822    0.0000 H   0  0  0  0  0  0  0  0  0  0  0  0
    0.7396    2.6812    0.0000 H   0  0  0  0  0  0  0  0  0  0  0  0
   -0.0233    2.6649    0.0000 H   0  0  0  0  0  0  0  0  0  0  0  0
    1.9085    1.5803    0.0000 H   0  0  0  0  0  0  0  0  0  0  0  0
    1.5276    2.1807    0.0000 H   0  0  0  0  0  0  0  0  0  0  0  0
    2.7736    0.8820    0.0000 H   0  0  0  0  0  0  0  0  0  0  0  0
    2.1976    1.2481    0.0000 H   0  0  0  0  0  0  0  0  0  0  0  0
    3.3993   -0.6065    0.0000 H   0  0  0  0  0  0  0  0  0  0  0  0
    3.3373    0.1481    0.0000 H   0  0  0  0  0  0  0  0  0  0  0  0
    2.1028   -2.2628    0.0000 H   0  0  0  0  0  0  0  0  0  0  0  0
    3.2652   -2.3626    0.0000 H   0  0  0  0  0  0  0  0  0  0  0  0
    3.3649   -1.2001    0.0000 H   0  0  0  0  0  0  0  0  0  0  0  0
   -0.8819   -1.9270    0.0000 H   0  0  0  0  0  0  0  0  0  0  0  0
   -0.4715   -2.8489    0.0000 H   0  0  0  0  0  0  0  0  0  0  0  0
    0.5240   -2.6841    0.0000 H   0  0  0  0  0  0  0  0  0  0  0  0
  1  2  2  0  0  0  0
  1 26  1  0  0  0  0
  1 27  1  0  0  0  0
  2  3  1  0  0  0  0
  2 28  1  0  0  0  0
  3  4  1  0  0  0  0
  3 29  1  0  0  0  0
  3 30  1  0  0  0  0
  4  5  1  0  0  0  0
  5  6  1  0  0  0  0
  5 31  1  0  0  0  0
  5 32  1  0  0  0  0
  7  6  1  0  0  0  0
  6 33  1  0  0  0  0
  6 34  1  0  0  0  0
  7 23  1  1  0  0  0
  7  8  1  6  0  0  0
 18  7  1  0  0  0  0
  8  9  1  0  0  0  0
  8 35  1  0  0  0  0
  8 36  1  0  0  0  0
  9 10  1  0  0  0  0
  9 37  1  0  0  0  0
  9 38  1  0  0  0  0
 11 10  1  0  0  0  0
 10 39  1  0  0  0  0
 10 40  1  0  0  0  0
 11 24  1  1  0  0  0
 11 12  1  0  0  0  0
 18 11  1  0  0  0  0
 12 13  1  0  0  0  0
 12 41  1  0  0  0  0
 12 42  1  0  0  0  0
 14 13  1  0  0  0  0
 13 43  1  0  0  0  0
 13 44  1  0  0  0  0
 14 15  1  1  0  0  0
 14 16  1  0  0  0  0
 14 22  1  0  0  0  0
 15 45  1  0  0  0  0
 15 46  1  0  0  0  0
 15 47  1  0  0  0  0
 16 17  1  0  0  0  0
 18 17  1  1  0  0  0
 18 19  1  0  0  0  0
 19 25  1  1  0  0  0
 19 20  1  0  0  0  0
 19 22  1  0  0  0  0
 20 21  1  0  0  0  0
 21 48  1  0  0  0  0
 21 49  1  0  0  0  0
 21 50  1  0  0  0  0
M  END
