
  Mrv171c004271813302D          

 48 51  0  0  0  0            999 V2000
    1.1087   -2.0229    0.0000 C   0  0  0  0  0  0  0  0  0  0  0  0
    0.4203   -1.5683    0.0000 C   0  0  1  0  0  0  0  0  0  0  0  0
   -0.2989   -1.9995    0.0000 C   0  0  0  0  0  0  0  0  0  0  0  0
   -0.8624   -1.3800    0.0000 C   0  0  0  0  0  0  0  0  0  0  0  0
   -0.7663   -0.5251    0.0000 C   0  0  1  0  0  0  0  0  0  0  0  0
   -1.5989   -0.2924    0.0000 C   0  0  1  0  0  0  0  0  0  0  0  0
   -2.1592   -0.8980    0.0000 C   0  0  0  0  0  0  0  0  0  0  0  0
   -1.8874    0.4977    0.0000 C   0  0  0  0  0  0  0  0  0  0  0  0
   -2.6699    0.7592    0.0000 O   0  0  0  0  0  0  0  0  0  0  0  0
   -1.1823    0.9553    0.0000 N   0  0  0  0  0  0  0  0  0  0  0  0
   -1.2872    1.7736    0.0000 C   0  0  0  0  0  0  0  0  0  0  0  0
   -0.6310    2.2736    0.0000 C   0  0  0  0  0  0  0  0  0  0  0  0
   -0.7359    3.0919    0.0000 O   0  0  0  0  0  0  0  0  0  0  0  0
   -0.3675    0.6847    0.0000 C   0  0  2  0  0  0  0  0  0  0  0  0
    0.5652    0.4640    0.0000 O   0  0  0  0  0  0  0  0  0  0  0  0
    1.3972    0.6770    0.0000 C   0  0  1  0  0  0  0  0  0  0  0  0
    2.0827    1.1361    0.0000 C   0  0  0  0  0  0  0  0  0  0  0  0
    1.8830   -0.0208    0.0000 C   0  0  0  0  0  0  0  0  0  0  0  0
    1.3942   -0.7098    0.0000 C   0  0  0  0  0  0  0  0  0  0  0  0
    0.5367   -0.7210    0.0000 C   0  0  2  0  0  0  0  0  0  0  0  0
   -0.0239   -0.0256    0.0000 C   0  0  1  0  0  0  0  0  0  0  0  0
    0.2147    0.9252    0.0000 O   0  0  0  0  0  0  0  0  0  0  0  0
    0.9408    1.3856    0.0000 O   0  0  0  0  0  0  0  0  0  0  0  0
   -1.3742   -1.0862    0.0000 H   0  0  0  0  0  0  0  0  0  0  0  0
   -0.2582   -0.9419    0.0000 H   0  0  0  0  0  0  0  0  0  0  0  0
    0.6541   -2.7114    0.0000 H   0  0  0  0  0  0  0  0  0  0  0  0
    1.7972   -2.4776    0.0000 H   0  0  0  0  0  0  0  0  0  0  0  0
    1.5634   -1.3345    0.0000 H   0  0  0  0  0  0  0  0  0  0  0  0
    1.1718   -1.2279    0.0000 H   0  0  0  0  0  0  0  0  0  0  0  0
   -0.7968   -2.6573    0.0000 H   0  0  0  0  0  0  0  0  0  0  0  0
   -0.0119   -2.7730    0.0000 H   0  0  0  0  0  0  0  0  0  0  0  0
   -1.6804   -1.2727    0.0000 H   0  0  0  0  0  0  0  0  0  0  0  0
   -1.4623   -1.9463    0.0000 H   0  0  0  0  0  0  0  0  0  0  0  0
   -0.8976    0.2894    0.0000 H   0  0  0  0  0  0  0  0  0  0  0  0
   -2.5196   -0.1559    0.0000 H   0  0  0  0  0  0  0  0  0  0  0  0
   -2.9815   -0.9640    0.0000 H   0  0  0  0  0  0  0  0  0  0  0  0
   -2.3966   -1.6881    0.0000 H   0  0  0  0  0  0  0  0  0  0  0  0
   -1.8245    2.3997    0.0000 H   0  0  0  0  0  0  0  0  0  0  0  0
   -2.1102    1.7165    0.0000 H   0  0  0  0  0  0  0  0  0  0  0  0
    0.1301    1.9553    0.0000 H   0  0  0  0  0  0  0  0  0  0  0  0
   -0.3968    1.5092    0.0000 H   0  0  0  0  0  0  0  0  0  0  0  0
    2.5418    0.4506    0.0000 H   0  0  0  0  0  0  0  0  0  0  0  0
    2.7681    1.5952    0.0000 H   0  0  0  0  0  0  0  0  0  0  0  0
    1.6236    1.8215    0.0000 H   0  0  0  0  0  0  0  0  0  0  0  0
    2.1420   -0.8041    0.0000 H   0  0  0  0  0  0  0  0  0  0  0  0
    2.6674   -0.2766    0.0000 H   0  0  0  0  0  0  0  0  0  0  0  0
    1.2982    0.1096    0.0000 H   0  0  0  0  0  0  0  0  0  0  0  0
    0.7743   -0.1655    0.0000 H   0  0  0  0  0  0  0  0  0  0  0  0
  2  1  1  1  0  0  0
  1 26  1  0  0  0  0
  1 27  1  0  0  0  0
  1 28  1  0  0  0  0
  2  3  1  0  0  0  0
 20  2  1  0  0  0  0
  2 29  1  6  0  0  0
  3  4  1  0  0  0  0
  3 30  1  0  0  0  0
  3 31  1  0  0  0  0
  5  4  1  0  0  0  0
  4 32  1  0  0  0  0
  4 33  1  0  0  0  0
  5  6  1  0  0  0  0
 21  5  1  0  0  0  0
  5 34  1  6  0  0  0
  6 24  1  6  0  0  0
  6  7  1  1  0  0  0
  6  8  1  0  0  0  0
  7 35  1  0  0  0  0
  7 36  1  0  0  0  0
  7 37  1  0  0  0  0
  8  9  2  0  0  0  0
  8 10  1  0  0  0  0
 10 11  1  0  0  0  0
 14 10  1  0  0  0  0
 11 12  1  0  0  0  0
 11 38  1  0  0  0  0
 11 39  1  0  0  0  0
 12 13  2  0  0  0  0
 12 40  1  0  0  0  0
 14 15  1  0  0  0  0
 21 14  1  0  0  0  0
 14 41  1  1  0  0  0
 16 15  1  0  0  0  0
 16 17  1  1  0  0  0
 16 18  1  0  0  0  0
 16 23  1  0  0  0  0
 17 42  1  0  0  0  0
 17 43  1  0  0  0  0
 17 44  1  0  0  0  0
 18 19  1  0  0  0  0
 18 45  1  0  0  0  0
 18 46  1  0  0  0  0
 20 19  1  0  0  0  0
 19 47  1  0  0  0  0
 19 48  1  0  0  0  0
 20 25  1  6  0  0  0
 21 20  1  0  0  0  0
 21 22  1  6  0  0  0
 22 23  1  0  0  0  0
M  END
