
  Mrv171c004271813302D          

 54 58  0  0  0  0            999 V2000
    1.4906   -2.0662    0.0000 C   0  0  0  0  0  0  0  0  0  0  0  0
    0.7573   -1.6881    0.0000 C   0  0  1  0  0  0  0  0  0  0  0  0
    0.0580   -2.1030    0.0000 C   0  0  0  0  0  0  0  0  0  0  0  0
   -0.6818   -1.7336    0.0000 C   0  0  0  0  0  0  0  0  0  0  0  0
   -0.7273   -0.9024    0.0000 C   0  0  1  0  0  0  0  0  0  0  0  0
   -1.5342   -0.7117    0.0000 C   0  0  1  0  0  0  0  0  0  0  0  0
   -2.1020   -1.3103    0.0000 C   0  0  0  0  0  0  0  0  0  0  0  0
   -1.7663    0.0808    0.0000 C   0  0  0  0  0  0  0  0  0  0  0  0
   -2.5721    0.2579    0.0000 O   0  0  0  0  0  0  0  0  0  0  0  0
   -1.2286    0.6970    0.0000 N   0  0  0  0  0  0  0  0  0  0  0  0
   -1.4725    1.4852    0.0000 C   0  0  0  0  0  0  0  0  0  0  0  0
   -0.9118    2.0904    0.0000 C   0  0  0  0  0  0  0  0  0  0  0  0
   -1.1557    2.8786    0.0000 C   0  0  0  0  0  0  0  0  0  0  0  0
   -0.5951    3.4838    0.0000 C   0  0  0  0  0  0  0  0  0  0  0  0
    0.2094    3.3009    0.0000 C   0  0  0  0  0  0  0  0  0  0  0  0
    0.4533    2.5128    0.0000 C   0  0  0  0  0  0  0  0  0  0  0  0
   -0.1074    1.9075    0.0000 N   0  0  0  0  0  0  0  0  0  0  0  0
   -0.4317    0.4908    0.0000 C   0  0  2  0  0  0  0  0  0  0  0  0
    0.1552    1.1415    0.0000 O   0  0  0  0  0  0  0  0  0  0  0  0
    0.9067    0.7450    0.0000 C   0  0  1  0  0  0  0  0  0  0  0  0
    1.3451    1.4439    0.0000 C   0  0  0  0  0  0  0  0  0  0  0  0
    1.5955    0.2375    0.0000 C   0  0  0  0  0  0  0  0  0  0  0  0
    1.5193   -0.6019    0.0000 C   0  0  0  0  0  0  0  0  0  0  0  0
    0.6889   -0.8655    0.0000 C   0  0  2  0  0  0  0  0  0  0  0  0
   -0.0733   -0.3509    0.0000 C   0  0  1  0  0  0  0  0  0  0  0  0
    0.4242    0.1396    0.0000 O   0  0  0  0  0  0  0  0  0  0  0  0
   -1.2984   -1.5023    0.0000 H   0  0  0  0  0  0  0  0  0  0  0  0
   -0.0230   -1.2825    0.0000 H   0  0  0  0  0  0  0  0  0  0  0  0
    1.1125   -2.7995    0.0000 H   0  0  0  0  0  0  0  0  0  0  0  0
    2.2238   -2.4443    0.0000 H   0  0  0  0  0  0  0  0  0  0  0  0
    1.8687   -1.3330    0.0000 H   0  0  0  0  0  0  0  0  0  0  0  0
    1.4434   -1.2299    0.0000 H   0  0  0  0  0  0  0  0  0  0  0  0
   -0.2813   -2.8550    0.0000 H   0  0  0  0  0  0  0  0  0  0  0  0
    0.4508   -2.8285    0.0000 H   0  0  0  0  0  0  0  0  0  0  0  0
   -1.5014   -1.8283    0.0000 H   0  0  0  0  0  0  0  0  0  0  0  0
   -1.0943   -2.4480    0.0000 H   0  0  0  0  0  0  0  0  0  0  0  0
   -0.9188   -0.0999    0.0000 H   0  0  0  0  0  0  0  0  0  0  0  0
   -2.4466   -0.5607    0.0000 H   0  0  0  0  0  0  0  0  0  0  0  0
   -2.9259   -1.3516    0.0000 H   0  0  0  0  0  0  0  0  0  0  0  0
   -2.3699   -2.0906    0.0000 H   0  0  0  0  0  0  0  0  0  0  0  0
   -2.1093    2.0097    0.0000 H   0  0  0  0  0  0  0  0  0  0  0  0
   -2.2734    1.2876    0.0000 H   0  0  0  0  0  0  0  0  0  0  0  0
   -1.9602    3.0615    0.0000 H   0  0  0  0  0  0  0  0  0  0  0  0
   -0.8389    4.2720    0.0000 H   0  0  0  0  0  0  0  0  0  0  0  0
    0.7700    3.9062    0.0000 H   0  0  0  0  0  0  0  0  0  0  0  0
    1.2577    2.3299    0.0000 H   0  0  0  0  0  0  0  0  0  0  0  0
   -0.6691    1.2810    0.0000 H   0  0  0  0  0  0  0  0  0  0  0  0
    2.0003    0.9425    0.0000 H   0  0  0  0  0  0  0  0  0  0  0  0
    2.1551    1.6007    0.0000 H   0  0  0  0  0  0  0  0  0  0  0  0
    0.5420    1.6327    0.0000 H   0  0  0  0  0  0  0  0  0  0  0  0
    2.3822   -0.0109    0.0000 H   0  0  0  0  0  0  0  0  0  0  0  0
    0.8431   -0.1009    0.0000 H   0  0  0  0  0  0  0  0  0  0  0  0
    2.3173   -0.8113    0.0000 H   0  0  0  0  0  0  0  0  0  0  0  0
    2.1946   -0.1280    0.0000 H   0  0  0  0  0  0  0  0  0  0  0  0
  2  1  1  0  0  0  0
  1 29  1  0  0  0  0
  1 30  1  0  0  0  0
  1 31  1  0  0  0  0
  2  3  1  0  0  0  0
 24  2  1  0  0  0  0
  2 32  1  6  0  0  0
  3  4  1  0  0  0  0
  3 33  1  0  0  0  0
  3 34  1  0  0  0  0
  5  4  1  0  0  0  0
  4 35  1  0  0  0  0
  4 36  1  0  0  0  0
  5  6  1  0  0  0  0
 25  5  1  0  0  0  0
  5 37  1  6  0  0  0
  6 27  1  6  0  0  0
  6  7  1  0  0  0  0
  6  8  1  0  0  0  0
  7 38  1  0  0  0  0
  7 39  1  0  0  0  0
  7 40  1  0  0  0  0
  8  9  2  0  0  0  0
  8 10  1  0  0  0  0
 10 11  1  0  0  0  0
 18 10  1  0  0  0  0
 11 12  1  0  0  0  0
 11 41  1  0  0  0  0
 11 42  1  0  0  0  0
 12 13  1  0  0  0  0
 12 17  2  0  0  0  0
 13 14  2  0  0  0  0
 13 43  1  0  0  0  0
 14 15  1  0  0  0  0
 14 44  1  0  0  0  0
 15 16  2  0  0  0  0
 15 45  1  0  0  0  0
 16 17  1  0  0  0  0
 16 46  1  0  0  0  0
 18 19  1  0  0  0  0
 25 18  1  0  0  0  0
 18 47  1  1  0  0  0
 20 19  1  0  0  0  0
 20 21  1  6  0  0  0
 20 22  1  0  0  0  0
 20 26  1  0  0  0  0
 21 48  1  0  0  0  0
 21 49  1  0  0  0  0
 21 50  1  0  0  0  0
 22 23  1  0  0  0  0
 22 51  1  0  0  0  0
 22 52  1  0  0  0  0
 24 23  1  0  0  0  0
 23 53  1  0  0  0  0
 23 54  1  0  0  0  0
 24 28  1  6  0  0  0
 25 24  1  0  0  0  0
 25 26  1  6  0  0  0
M  END
