
  Mrv171c004271813302D          

 52 55  0  0  0  0            999 V2000
   -1.3253    0.4396    0.0000 C   0  0  0  0  0  0  0  0  0  0  0  0
   -1.6371   -0.3508    0.0000 C   0  0  0  0  0  0  0  0  0  0  0  0
   -2.4220   -0.6050    0.0000 O   0  0  0  0  0  0  0  0  0  0  0  0
   -0.9274   -0.8044    0.0000 N   0  0  0  0  0  0  0  0  0  0  0  0
   -1.0198   -1.6242    0.0000 C   0  0  0  0  0  0  0  0  0  0  0  0
   -1.7760   -1.9540    0.0000 C   0  0  0  0  0  0  0  0  0  0  0  0
   -1.8684   -2.7739    0.0000 C   0  0  0  0  0  0  0  0  0  0  0  0
   -2.4398   -1.4641    0.0000 C   0  0  0  0  0  0  0  0  0  0  0  0
   -0.0991   -0.5074    0.0000 C   0  0  2  0  0  0  0  0  0  0  0  0
    0.8361   -0.2574    0.0000 O   0  0  0  0  0  0  0  0  0  0  0  0
    1.6490   -0.5425    0.0000 C   0  0  1  0  0  0  0  0  0  0  0  0
    2.3194   -1.0233    0.0000 C   0  0  0  0  0  0  0  0  0  0  0  0
    2.1528    0.1572    0.0000 C   0  0  0  0  0  0  0  0  0  0  0  0
    1.6687    0.8611    0.0000 C   0  0  0  0  0  0  0  0  0  0  0  0
    0.8104    0.9178    0.0000 C   0  0  1  0  0  0  0  0  0  0  0  0
    0.6867    1.7669    0.0000 C   0  0  1  0  0  0  0  0  0  0  0  0
    1.3651    2.2364    0.0000 C   0  0  0  0  0  0  0  0  0  0  0  0
   -0.0470    2.1723    0.0000 C   0  0  0  0  0  0  0  0  0  0  0  0
   -0.5974    1.5552    0.0000 C   0  0  0  0  0  0  0  0  0  0  0  0
   -0.5094    0.7141    0.0000 C   0  0  2  0  0  0  0  0  0  0  0  0
    0.2306    0.2231    0.0000 C   0  0  1  0  0  0  0  0  0  0  0  0
    0.4793   -0.7078    0.0000 O   0  0  0  0  0  0  0  0  0  0  0  0
    1.1492   -1.2422    0.0000 O   0  0  0  0  0  0  0  0  0  0  0  0
   -1.5802    1.2243    0.0000 H   0  0  0  0  0  0  0  0  0  0  0  0
   -2.0959    0.7342    0.0000 H   0  0  0  0  0  0  0  0  0  0  0  0
    0.0165    1.1422    0.0000 H   0  0  0  0  0  0  0  0  0  0  0  0
   -0.6466   -2.3599    0.0000 H   0  0  0  0  0  0  0  0  0  0  0  0
   -0.2068   -1.7641    0.0000 H   0  0  0  0  0  0  0  0  0  0  0  0
   -1.1122   -2.4440    0.0000 H   0  0  0  0  0  0  0  0  0  0  0  0
   -2.6364   -2.4724    0.0000 H   0  0  0  0  0  0  0  0  0  0  0  0
   -2.3584   -3.4376    0.0000 H   0  0  0  0  0  0  0  0  0  0  0  0
   -1.3541   -3.4189    0.0000 H   0  0  0  0  0  0  0  0  0  0  0  0
   -3.2648   -1.4656    0.0000 H   0  0  0  0  0  0  0  0  0  0  0  0
   -2.9446   -2.1166    0.0000 H   0  0  0  0  0  0  0  0  0  0  0  0
   -1.6995   -1.1000    0.0000 H   0  0  0  0  0  0  0  0  0  0  0  0
   -0.0947   -1.3324    0.0000 H   0  0  0  0  0  0  0  0  0  0  0  0
    1.8386   -1.6937    0.0000 H   0  0  0  0  0  0  0  0  0  0  0  0
    2.9898   -1.5041    0.0000 H   0  0  0  0  0  0  0  0  0  0  0  0
    2.8002   -0.3529    0.0000 H   0  0  0  0  0  0  0  0  0  0  0  0
    2.9458    0.3848    0.0000 H   0  0  0  0  0  0  0  0  0  0  0  0
    2.4314    0.9338    0.0000 H   0  0  0  0  0  0  0  0  0  0  0  0
    1.6567    1.6860    0.0000 H   0  0  0  0  0  0  0  0  0  0  0  0
    1.2608    0.1439    0.0000 H   0  0  0  0  0  0  0  0  0  0  0  0
    1.4432    1.4378    0.0000 H   0  0  0  0  0  0  0  0  0  0  0  0
    2.1838    2.3385    0.0000 H   0  0  0  0  0  0  0  0  0  0  0  0
    1.5605    3.0379    0.0000 H   0  0  0  0  0  0  0  0  0  0  0  0
    0.6853    2.7038    0.0000 H   0  0  0  0  0  0  0  0  0  0  0  0
   -0.3393    2.9437    0.0000 H   0  0  0  0  0  0  0  0  0  0  0  0
   -0.7852    2.5406    0.0000 H   0  0  0  0  0  0  0  0  0  0  0  0
   -1.1990    2.1198    0.0000 H   0  0  0  0  0  0  0  0  0  0  0  0
   -1.4155    1.4487    0.0000 H   0  0  0  0  0  0  0  0  0  0  0  0
   -0.6169   -0.1038    0.0000 H   0  0  0  0  0  0  0  0  0  0  0  0
  1 24  1  0  0  0  0
  1 25  1  0  0  0  0
  1  2  1  0  0  0  0
 20  1  1  0  0  0  0
  2  3  2  0  0  0  0
  2  4  1  0  0  0  0
  4  5  1  0  0  0  0
  9  4  1  0  0  0  0
  5  6  1  0  0  0  0
  5 27  1  0  0  0  0
  5 28  1  0  0  0  0
  6  7  1  0  0  0  0
  6  8  1  0  0  0  0
  6 29  1  0  0  0  0
  7 30  1  0  0  0  0
  7 31  1  0  0  0  0
  7 32  1  0  0  0  0
  8 33  1  0  0  0  0
  8 34  1  0  0  0  0
  8 35  1  0  0  0  0
  9 10  1  0  0  0  0
 21  9  1  0  0  0  0
  9 36  1  6  0  0  0
 11 10  1  0  0  0  0
 11 12  1  6  0  0  0
 11 13  1  0  0  0  0
 11 23  1  0  0  0  0
 12 37  1  0  0  0  0
 12 38  1  0  0  0  0
 12 39  1  0  0  0  0
 13 14  1  0  0  0  0
 13 40  1  0  0  0  0
 13 41  1  0  0  0  0
 15 14  1  0  0  0  0
 14 42  1  0  0  0  0
 14 43  1  0  0  0  0
 15 26  1  1  0  0  0
 15 16  1  0  0  0  0
 21 15  1  0  0  0  0
 16 17  1  6  0  0  0
 16 18  1  0  0  0  0
 16 44  1  1  0  0  0
 17 45  1  0  0  0  0
 17 46  1  0  0  0  0
 17 47  1  0  0  0  0
 18 19  1  0  0  0  0
 18 48  1  0  0  0  0
 18 49  1  0  0  0  0
 20 19  1  0  0  0  0
 19 50  1  0  0  0  0
 19 51  1  0  0  0  0
 21 20  1  0  0  0  0
 20 52  1  1  0  0  0
 21 22  1  1  0  0  0
 22 23  1  0  0  0  0
M  END
