
  Mrv171c004271813302D          

 46 49  0  0  0  0            999 V2000
   -0.3966    1.2653    0.0000 C   0  0  1  0  0  0  0  0  0  0  0  0
   -1.1795    1.6152    0.0000 O   0  0  0  0  0  0  0  0  0  0  0  0
   -1.9704    1.3356    0.0000 C   0  0  0  0  0  0  0  0  0  0  0  0
   -2.2178    0.5357    0.0000 C   0  0  0  0  0  0  0  0  0  0  0  0
   -1.6001   -0.0241    0.0000 C   0  0  1  0  0  0  0  0  0  0  0  0
   -1.8929   -0.7954    0.0000 C   0  0  0  0  0  0  0  0  0  0  0  0
   -0.7417   -0.0149    0.0000 C   0  0  2  0  0  0  0  0  0  0  0  0
   -0.7725   -0.8721    0.0000 C   0  0  0  0  0  0  0  0  0  0  0  0
   -0.2030   -1.4865    0.0000 C   0  0  0  0  0  0  0  0  0  0  0  0
    0.4645   -0.9873    0.0000 C   0  0  1  0  0  0  0  0  0  0  0  0
    1.1918   -1.3767    0.0000 C   0  0  0  0  0  0  0  0  0  0  0  0
    0.5110   -0.1361    0.0000 C   0  0  2  0  0  0  0  0  0  0  0  0
    1.3660   -0.1913    0.0000 C   0  0  0  0  0  0  0  0  0  0  0  0
    1.8688    0.4770    0.0000 C   0  0  0  0  0  0  0  0  0  0  0  0
    1.3765    1.1665    0.0000 C   0  0  1  0  0  0  0  0  0  0  0  0
    2.0729    1.6088    0.0000 C   0  0  0  0  0  0  0  0  0  0  0  0
    0.9648    1.8999    0.0000 O   0  0  0  0  0  0  0  0  0  0  0  0
    0.2075    1.4968    0.0000 O   0  0  0  0  0  0  0  0  0  0  0  0
   -0.0488    0.5523    0.0000 C   0  0  2  0  0  0  0  0  0  0  0  0
    0.5209    1.0144    0.0000 O   0  0  0  0  0  0  0  0  0  0  0  0
   -0.3742    2.0900    0.0000 H   0  0  0  0  0  0  0  0  0  0  0  0
   -0.0026   -0.3814    0.0000 H   0  0  0  0  0  0  0  0  0  0  0  0
    0.8892    0.5971    0.0000 H   0  0  0  0  0  0  0  0  0  0  0  0
   -2.2555    2.1098    0.0000 H   0  0  0  0  0  0  0  0  0  0  0  0
   -2.7554    1.5895    0.0000 H   0  0  0  0  0  0  0  0  0  0  0  0
   -3.0250    0.7059    0.0000 H   0  0  0  0  0  0  0  0  0  0  0  0
   -2.8257   -0.0221    0.0000 H   0  0  0  0  0  0  0  0  0  0  0  0
   -1.3074    0.7472    0.0000 H   0  0  0  0  0  0  0  0  0  0  0  0
   -2.6642   -0.5026    0.0000 H   0  0  0  0  0  0  0  0  0  0  0  0
   -2.1857   -1.5667    0.0000 H   0  0  0  0  0  0  0  0  0  0  0  0
   -1.1216   -1.0882    0.0000 H   0  0  0  0  0  0  0  0  0  0  0  0
   -1.4859   -0.4577    0.0000 H   0  0  0  0  0  0  0  0  0  0  0  0
   -0.8831   -1.6897    0.0000 H   0  0  0  0  0  0  0  0  0  0  0  0
   -0.1386   -2.3089    0.0000 H   0  0  0  0  0  0  0  0  0  0  0  0
    0.4192   -2.0282    0.0000 H   0  0  0  0  0  0  0  0  0  0  0  0
    1.1836   -0.5829    0.0000 H   0  0  0  0  0  0  0  0  0  0  0  0
    0.6242   -1.9754    0.0000 H   0  0  0  0  0  0  0  0  0  0  0  0
    1.6194   -2.0823    0.0000 H   0  0  0  0  0  0  0  0  0  0  0  0
    1.9852   -1.1507    0.0000 H   0  0  0  0  0  0  0  0  0  0  0  0
    1.7913   -0.8983    0.0000 H   0  0  0  0  0  0  0  0  0  0  0  0
    2.1899   -0.2340    0.0000 H   0  0  0  0  0  0  0  0  0  0  0  0
    2.6844    0.6014    0.0000 H   0  0  0  0  0  0  0  0  0  0  0  0
    2.3862    1.1196    0.0000 H   0  0  0  0  0  0  0  0  0  0  0  0
    2.8852    1.7532    0.0000 H   0  0  0  0  0  0  0  0  0  0  0  0
    2.2511    2.4143    0.0000 H   0  0  0  0  0  0  0  0  0  0  0  0
    1.3974    2.0823    0.0000 H   0  0  0  0  0  0  0  0  0  0  0  0
  1 21  1  1  0  0  0
  1  2  1  0  0  0  0
 19  1  1  0  0  0  0
  1 20  1  0  0  0  0
  2  3  1  0  0  0  0
  3  4  1  0  0  0  0
  3 24  1  0  0  0  0
  3 25  1  0  0  0  0
  5  4  1  6  0  0  0
  4 26  1  0  0  0  0
  4 27  1  0  0  0  0
  5  6  1  0  0  0  0
  7  5  1  0  0  0  0
  5 28  1  1  0  0  0
  6 29  1  0  0  0  0
  6 30  1  0  0  0  0
  6 31  1  0  0  0  0
  7 22  1  6  0  0  0
  7  8  1  0  0  0  0
 19  7  1  0  0  0  0
  8  9  1  0  0  0  0
  8 32  1  0  0  0  0
  8 33  1  0  0  0  0
 10  9  1  0  0  0  0
  9 34  1  0  0  0  0
  9 35  1  0  0  0  0
 10 11  1  6  0  0  0
 12 10  1  0  0  0  0
 10 36  1  1  0  0  0
 11 37  1  0  0  0  0
 11 38  1  0  0  0  0
 11 39  1  0  0  0  0
 12 23  1  6  0  0  0
 12 13  1  0  0  0  0
 19 12  1  0  0  0  0
 13 14  1  0  0  0  0
 13 40  1  0  0  0  0
 13 41  1  0  0  0  0
 15 14  1  0  0  0  0
 14 42  1  0  0  0  0
 14 43  1  0  0  0  0
 15 16  1  1  0  0  0
 15 17  1  0  0  0  0
 15 20  1  0  0  0  0
 16 44  1  0  0  0  0
 16 45  1  0  0  0  0
 16 46  1  0  0  0  0
 17 18  1  0  0  0  0
 19 18  1  6  0  0  0
M  END
