
  Mrv171c004271813302D          

 55 58  0  0  0  0            999 V2000
   -1.3156    0.8022    0.0000 C   0  0  0  0  0  0  0  0  0  0  0  0
   -1.6274    0.0118    0.0000 C   0  0  0  0  0  0  0  0  0  0  0  0
   -2.4122   -0.2424    0.0000 O   0  0  0  0  0  0  0  0  0  0  0  0
   -0.9177   -0.4418    0.0000 N   0  0  0  0  0  0  0  0  0  0  0  0
   -1.0101   -1.2616    0.0000 C   0  0  0  0  0  0  0  0  0  0  0  0
   -1.7663   -1.5915    0.0000 C   0  0  0  0  0  0  0  0  0  0  0  0
   -1.8587   -2.4113    0.0000 C   0  0  0  0  0  0  0  0  0  0  0  0
   -2.6149   -2.7412    0.0000 C   0  0  0  0  0  0  0  0  0  0  0  0
   -1.1949   -2.9012    0.0000 C   0  0  0  0  0  0  0  0  0  0  0  0
   -0.0894   -0.1449    0.0000 C   0  0  2  0  0  0  0  0  0  0  0  0
    0.8459    0.1052    0.0000 O   0  0  0  0  0  0  0  0  0  0  0  0
    1.6587   -0.1800    0.0000 C   0  0  1  0  0  0  0  0  0  0  0  0
    2.3292   -0.6608    0.0000 C   0  0  0  0  0  0  0  0  0  0  0  0
    2.1626    0.5198    0.0000 C   0  0  0  0  0  0  0  0  0  0  0  0
    1.6785    1.2236    0.0000 C   0  0  0  0  0  0  0  0  0  0  0  0
    0.8201    1.2804    0.0000 C   0  0  1  0  0  0  0  0  0  0  0  0
    0.6965    2.1295    0.0000 C   0  0  1  0  0  0  0  0  0  0  0  0
    1.3748    2.5990    0.0000 C   0  0  0  0  0  0  0  0  0  0  0  0
   -0.0373    2.5348    0.0000 C   0  0  0  0  0  0  0  0  0  0  0  0
   -0.5877    1.9178    0.0000 C   0  0  0  0  0  0  0  0  0  0  0  0
   -0.4997    1.0767    0.0000 C   0  0  2  0  0  0  0  0  0  0  0  0
    0.2403    0.5857    0.0000 C   0  0  1  0  0  0  0  0  0  0  0  0
    0.4890   -0.3452    0.0000 O   0  0  0  0  0  0  0  0  0  0  0  0
    1.1590   -0.8797    0.0000 O   0  0  0  0  0  0  0  0  0  0  0  0
   -1.5704    1.5868    0.0000 H   0  0  0  0  0  0  0  0  0  0  0  0
   -2.0862    1.0968    0.0000 H   0  0  0  0  0  0  0  0  0  0  0  0
    0.0262    1.5047    0.0000 H   0  0  0  0  0  0  0  0  0  0  0  0
   -0.6368   -1.9973    0.0000 H   0  0  0  0  0  0  0  0  0  0  0  0
   -0.1971   -1.4015    0.0000 H   0  0  0  0  0  0  0  0  0  0  0  0
   -2.1396   -0.8558    0.0000 H   0  0  0  0  0  0  0  0  0  0  0  0
   -2.5793   -1.4516    0.0000 H   0  0  0  0  0  0  0  0  0  0  0  0
   -2.5225   -1.9214    0.0000 H   0  0  0  0  0  0  0  0  0  0  0  0
   -3.3828   -2.4397    0.0000 H   0  0  0  0  0  0  0  0  0  0  0  0
   -3.1048   -3.4049    0.0000 H   0  0  0  0  0  0  0  0  0  0  0  0
   -2.1005   -3.3862    0.0000 H   0  0  0  0  0  0  0  0  0  0  0  0
   -1.6849   -3.5650    0.0000 H   0  0  0  0  0  0  0  0  0  0  0  0
   -0.5312   -3.3912    0.0000 H   0  0  0  0  0  0  0  0  0  0  0  0
   -0.7050   -2.2375    0.0000 H   0  0  0  0  0  0  0  0  0  0  0  0
   -0.0850   -0.9699    0.0000 H   0  0  0  0  0  0  0  0  0  0  0  0
    1.8484   -1.3312    0.0000 H   0  0  0  0  0  0  0  0  0  0  0  0
    2.9996   -1.1416    0.0000 H   0  0  0  0  0  0  0  0  0  0  0  0
    2.8099    0.0097    0.0000 H   0  0  0  0  0  0  0  0  0  0  0  0
    2.9556    0.7474    0.0000 H   0  0  0  0  0  0  0  0  0  0  0  0
    2.4411    1.2964    0.0000 H   0  0  0  0  0  0  0  0  0  0  0  0
    1.6665    2.0485    0.0000 H   0  0  0  0  0  0  0  0  0  0  0  0
    1.2706    0.5065    0.0000 H   0  0  0  0  0  0  0  0  0  0  0  0
    1.4530    1.8003    0.0000 H   0  0  0  0  0  0  0  0  0  0  0  0
    2.1935    2.7010    0.0000 H   0  0  0  0  0  0  0  0  0  0  0  0
    1.5702    3.4005    0.0000 H   0  0  0  0  0  0  0  0  0  0  0  0
    0.6950    3.0664    0.0000 H   0  0  0  0  0  0  0  0  0  0  0  0
   -0.3296    3.3063    0.0000 H   0  0  0  0  0  0  0  0  0  0  0  0
   -0.7755    2.9031    0.0000 H   0  0  0  0  0  0  0  0  0  0  0  0
   -1.1893    2.4824    0.0000 H   0  0  0  0  0  0  0  0  0  0  0  0
   -1.4058    1.8112    0.0000 H   0  0  0  0  0  0  0  0  0  0  0  0
   -0.6072    0.2587    0.0000 H   0  0  0  0  0  0  0  0  0  0  0  0
  1 25  1  0  0  0  0
  1 26  1  0  0  0  0
  1  2  1  0  0  0  0
 21  1  1  0  0  0  0
  2  3  2  0  0  0  0
  2  4  1  0  0  0  0
  4  5  1  0  0  0  0
 10  4  1  0  0  0  0
  5  6  1  0  0  0  0
  5 28  1  0  0  0  0
  5 29  1  0  0  0  0
  6  7  1  0  0  0  0
  6 30  1  0  0  0  0
  6 31  1  0  0  0  0
  7  8  1  0  0  0  0
  7  9  1  0  0  0  0
  7 32  1  0  0  0  0
  8 33  1  0  0  0  0
  8 34  1  0  0  0  0
  8 35  1  0  0  0  0
  9 36  1  0  0  0  0
  9 37  1  0  0  0  0
  9 38  1  0  0  0  0
 10 11  1  0  0  0  0
 22 10  1  0  0  0  0
 10 39  1  6  0  0  0
 12 11  1  0  0  0  0
 12 13  1  6  0  0  0
 12 14  1  0  0  0  0
 12 24  1  0  0  0  0
 13 40  1  0  0  0  0
 13 41  1  0  0  0  0
 13 42  1  0  0  0  0
 14 15  1  0  0  0  0
 14 43  1  0  0  0  0
 14 44  1  0  0  0  0
 16 15  1  0  0  0  0
 15 45  1  0  0  0  0
 15 46  1  0  0  0  0
 16 27  1  1  0  0  0
 16 17  1  0  0  0  0
 22 16  1  0  0  0  0
 17 18  1  6  0  0  0
 17 19  1  0  0  0  0
 17 47  1  1  0  0  0
 18 48  1  0  0  0  0
 18 49  1  0  0  0  0
 18 50  1  0  0  0  0
 19 20  1  0  0  0  0
 19 51  1  0  0  0  0
 19 52  1  0  0  0  0
 21 20  1  0  0  0  0
 20 53  1  0  0  0  0
 20 54  1  0  0  0  0
 22 21  1  0  0  0  0
 21 55  1  1  0  0  0
 22 23  1  1  0  0  0
 23 24  1  0  0  0  0
M  END
