
  Mrv171c004271813302D          

 59 63  0  0  0  0            999 V2000
   -0.8254    0.8675    0.0000 C   0  0  0  0  0  0  0  0  0  0  0  0
   -1.1372    0.0771    0.0000 C   0  0  0  0  0  0  0  0  0  0  0  0
   -1.9220   -0.1771    0.0000 O   0  0  0  0  0  0  0  0  0  0  0  0
   -0.4275   -0.3765    0.0000 N   0  0  0  0  0  0  0  0  0  0  0  0
   -0.5199   -1.1963    0.0000 C   0  0  0  0  0  0  0  0  0  0  0  0
   -1.2761   -1.5262    0.0000 C   0  0  0  0  0  0  0  0  0  0  0  0
   -1.3685   -2.3460    0.0000 C   0  0  0  0  0  0  0  0  0  0  0  0
   -2.1247   -2.6759    0.0000 C   0  0  0  0  0  0  0  0  0  0  0  0
   -2.2171   -3.4957    0.0000 C   0  0  0  0  0  0  0  0  0  0  0  0
   -2.9732   -3.8255    0.0000 C   0  0  0  0  0  0  0  0  0  0  0  0
   -3.6370   -3.3356    0.0000 C   0  0  0  0  0  0  0  0  0  0  0  0
   -3.5446   -2.5158    0.0000 C   0  0  0  0  0  0  0  0  0  0  0  0
   -2.7884   -2.1859    0.0000 C   0  0  0  0  0  0  0  0  0  0  0  0
    0.4008   -0.0796    0.0000 C   0  0  2  0  0  0  0  0  0  0  0  0
    1.3361    0.1705    0.0000 O   0  0  0  0  0  0  0  0  0  0  0  0
    2.1490   -0.1147    0.0000 C   0  0  1  0  0  0  0  0  0  0  0  0
    2.8194   -0.5954    0.0000 C   0  0  0  0  0  0  0  0  0  0  0  0
    2.6528    0.5851    0.0000 C   0  0  0  0  0  0  0  0  0  0  0  0
    2.1687    1.2889    0.0000 C   0  0  0  0  0  0  0  0  0  0  0  0
    1.3104    1.3457    0.0000 C   0  0  1  0  0  0  0  0  0  0  0  0
    1.1867    2.1948    0.0000 C   0  0  1  0  0  0  0  0  0  0  0  0
    1.8651    2.6643    0.0000 C   0  0  0  0  0  0  0  0  0  0  0  0
    0.4530    2.6001    0.0000 C   0  0  0  0  0  0  0  0  0  0  0  0
   -0.0975    1.9831    0.0000 C   0  0  0  0  0  0  0  0  0  0  0  0
   -0.0094    1.1420    0.0000 C   0  0  2  0  0  0  0  0  0  0  0  0
    0.7305    0.6510    0.0000 C   0  0  1  0  0  0  0  0  0  0  0  0
    0.9792   -0.2799    0.0000 O   0  0  0  0  0  0  0  0  0  0  0  0
    1.6492   -0.8144    0.0000 O   0  0  0  0  0  0  0  0  0  0  0  0
   -1.0802    1.6521    0.0000 H   0  0  0  0  0  0  0  0  0  0  0  0
   -1.5960    1.1621    0.0000 H   0  0  0  0  0  0  0  0  0  0  0  0
    0.5165    1.5701    0.0000 H   0  0  0  0  0  0  0  0  0  0  0  0
   -0.1466   -1.9320    0.0000 H   0  0  0  0  0  0  0  0  0  0  0  0
    0.2932   -1.3362    0.0000 H   0  0  0  0  0  0  0  0  0  0  0  0
   -1.6493   -0.7904    0.0000 H   0  0  0  0  0  0  0  0  0  0  0  0
   -2.0891   -1.3862    0.0000 H   0  0  0  0  0  0  0  0  0  0  0  0
   -0.9952   -3.0817    0.0000 H   0  0  0  0  0  0  0  0  0  0  0  0
   -0.5554   -2.4859    0.0000 H   0  0  0  0  0  0  0  0  0  0  0  0
   -1.5533   -3.9856    0.0000 H   0  0  0  0  0  0  0  0  0  0  0  0
   -3.0656   -4.6453    0.0000 H   0  0  0  0  0  0  0  0  0  0  0  0
   -4.3932   -3.6655    0.0000 H   0  0  0  0  0  0  0  0  0  0  0  0
   -4.2084   -2.0259    0.0000 H   0  0  0  0  0  0  0  0  0  0  0  0
   -2.6960   -1.3661    0.0000 H   0  0  0  0  0  0  0  0  0  0  0  0
    0.4053   -0.9046    0.0000 H   0  0  0  0  0  0  0  0  0  0  0  0
    2.3386   -1.2659    0.0000 H   0  0  0  0  0  0  0  0  0  0  0  0
    3.4898   -1.0762    0.0000 H   0  0  0  0  0  0  0  0  0  0  0  0
    3.3002    0.0750    0.0000 H   0  0  0  0  0  0  0  0  0  0  0  0
    3.4458    0.8127    0.0000 H   0  0  0  0  0  0  0  0  0  0  0  0
    2.9313    1.3617    0.0000 H   0  0  0  0  0  0  0  0  0  0  0  0
    2.1567    2.1139    0.0000 H   0  0  0  0  0  0  0  0  0  0  0  0
    1.7608    0.5718    0.0000 H   0  0  0  0  0  0  0  0  0  0  0  0
    1.9432    1.8657    0.0000 H   0  0  0  0  0  0  0  0  0  0  0  0
    2.6837    2.7664    0.0000 H   0  0  0  0  0  0  0  0  0  0  0  0
    2.0605    3.4658    0.0000 H   0  0  0  0  0  0  0  0  0  0  0  0
    1.1852    3.1317    0.0000 H   0  0  0  0  0  0  0  0  0  0  0  0
    0.1606    3.3716    0.0000 H   0  0  0  0  0  0  0  0  0  0  0  0
   -0.2853    2.9684    0.0000 H   0  0  0  0  0  0  0  0  0  0  0  0
   -0.6990    2.5477    0.0000 H   0  0  0  0  0  0  0  0  0  0  0  0
   -0.9156    1.8766    0.0000 H   0  0  0  0  0  0  0  0  0  0  0  0
   -0.1169    0.3241    0.0000 H   0  0  0  0  0  0  0  0  0  0  0  0
  1 29  1  0  0  0  0
  1 30  1  0  0  0  0
  1  2  1  0  0  0  0
 25  1  1  0  0  0  0
  2  3  2  0  0  0  0
  2  4  1  0  0  0  0
  4  5  1  0  0  0  0
 14  4  1  0  0  0  0
  5  6  1  0  0  0  0
  5 32  1  0  0  0  0
  5 33  1  0  0  0  0
  6  7  1  0  0  0  0
  6 34  1  0  0  0  0
  6 35  1  0  0  0  0
  7  8  1  0  0  0  0
  7 36  1  0  0  0  0
  7 37  1  0  0  0  0
  8  9  1  0  0  0  0
  8 13  2  0  0  0  0
  9 10  2  0  0  0  0
  9 38  1  0  0  0  0
 10 11  1  0  0  0  0
 10 39  1  0  0  0  0
 11 12  2  0  0  0  0
 11 40  1  0  0  0  0
 12 13  1  0  0  0  0
 12 41  1  0  0  0  0
 13 42  1  0  0  0  0
 14 15  1  0  0  0  0
 26 14  1  0  0  0  0
 14 43  1  6  0  0  0
 16 15  1  0  0  0  0
 16 17  1  6  0  0  0
 16 18  1  0  0  0  0
 16 28  1  0  0  0  0
 17 44  1  0  0  0  0
 17 45  1  0  0  0  0
 17 46  1  0  0  0  0
 18 19  1  0  0  0  0
 18 47  1  0  0  0  0
 18 48  1  0  0  0  0
 20 19  1  0  0  0  0
 19 49  1  0  0  0  0
 19 50  1  0  0  0  0
 20 31  1  1  0  0  0
 20 21  1  0  0  0  0
 26 20  1  0  0  0  0
 21 22  1  6  0  0  0
 21 23  1  0  0  0  0
 21 51  1  1  0  0  0
 22 52  1  0  0  0  0
 22 53  1  0  0  0  0
 22 54  1  0  0  0  0
 23 24  1  0  0  0  0
 23 55  1  0  0  0  0
 23 56  1  0  0  0  0
 25 24  1  0  0  0  0
 24 57  1  0  0  0  0
 24 58  1  0  0  0  0
 26 25  1  0  0  0  0
 25 59  1  1  0  0  0
 26 27  1  1  0  0  0
 27 28  1  0  0  0  0
M  END
