
  Mrv171c004271813302D          

 47 50  0  0  0  0            999 V2000
    1.6567   -0.4185    0.0000 C   0  0  0  0  0  0  0  0  0  0  0  0
    1.0117    0.0959    0.0000 C   0  0  0  0  0  0  0  0  0  0  0  0
    1.6567    0.6103    0.0000 C   0  0  0  0  0  0  0  0  0  0  0  0
    0.6537   -0.6474    0.0000 C   0  0  0  0  0  0  0  0  0  0  0  0
   -0.1506   -0.8310    0.0000 C   0  0  1  0  0  0  0  0  0  0  0  0
   -0.3342   -1.6353    0.0000 C   0  0  0  0  0  0  0  0  0  0  0  0
    0.2706   -2.1965    0.0000 C   0  0  0  0  0  0  0  0  0  0  0  0
    0.0870   -3.0008    0.0000 C   0  0  0  0  0  0  0  0  0  0  0  0
   -0.7013   -3.2439    0.0000 C   0  0  0  0  0  0  0  0  0  0  0  0
   -1.3061   -2.6828    0.0000 C   0  0  0  0  0  0  0  0  0  0  0  0
   -1.1225   -1.8785    0.0000 C   0  0  0  0  0  0  0  0  0  0  0  0
   -0.7956   -0.3166    0.0000 C   0  0  0  0  0  0  0  0  0  0  0  0
   -0.7956    0.5084    0.0000 C   0  0  0  0  0  0  0  0  0  0  0  0
   -0.1506    1.0228    0.0000 C   0  0  1  0  0  0  0  0  0  0  0  0
   -0.3342    1.8271    0.0000 C   0  0  0  0  0  0  0  0  0  0  0  0
   -1.1225    2.0702    0.0000 C   0  0  0  0  0  0  0  0  0  0  0  0
   -1.3061    2.8746    0.0000 C   0  0  0  0  0  0  0  0  0  0  0  0
   -0.7013    3.4357    0.0000 C   0  0  0  0  0  0  0  0  0  0  0  0
    0.0870    3.1925    0.0000 C   0  0  0  0  0  0  0  0  0  0  0  0
    0.2706    2.3882    0.0000 C   0  0  0  0  0  0  0  0  0  0  0  0
    0.6537    0.8392    0.0000 C   0  0  0  0  0  0  0  0  0  0  0  0
    0.0039    0.4048    0.0000 O   0  0  0  0  0  0  0  0  0  0  0  0
    0.0039   -0.2131    0.0000 O   0  0  0  0  0  0  0  0  0  0  0  0
    1.1423   -1.0635    0.0000 H   0  0  0  0  0  0  0  0  0  0  0  0
    2.3017   -0.9329    0.0000 H   0  0  0  0  0  0  0  0  0  0  0  0
    2.1711    0.2265    0.0000 H   0  0  0  0  0  0  0  0  0  0  0  0
    2.3911    0.9861    0.0000 H   0  0  0  0  0  0  0  0  0  0  0  0
    1.6434    1.4352    0.0000 H   0  0  0  0  0  0  0  0  0  0  0  0
    0.9105    0.9622    0.0000 H   0  0  0  0  0  0  0  0  0  0  0  0
    0.4572   -1.4487    0.0000 H   0  0  0  0  0  0  0  0  0  0  0  0
    1.4609   -0.4768    0.0000 H   0  0  0  0  0  0  0  0  0  0  0  0
    1.0730   -2.3881    0.0000 H   0  0  0  0  0  0  0  0  0  0  0  0
    0.6918   -3.5619    0.0000 H   0  0  0  0  0  0  0  0  0  0  0  0
   -0.8849   -4.0483    0.0000 H   0  0  0  0  0  0  0  0  0  0  0  0
   -2.0945   -2.9260    0.0000 H   0  0  0  0  0  0  0  0  0  0  0  0
   -1.7273   -1.3173    0.0000 H   0  0  0  0  0  0  0  0  0  0  0  0
   -1.6206   -0.3166    0.0000 H   0  0  0  0  0  0  0  0  0  0  0  0
   -1.3100   -0.9616    0.0000 H   0  0  0  0  0  0  0  0  0  0  0  0
   -1.3100    1.1534    0.0000 H   0  0  0  0  0  0  0  0  0  0  0  0
   -1.6206    0.5084    0.0000 H   0  0  0  0  0  0  0  0  0  0  0  0
   -1.9475    2.0609    0.0000 H   0  0  0  0  0  0  0  0  0  0  0  0
   -2.0945    3.1177    0.0000 H   0  0  0  0  0  0  0  0  0  0  0  0
   -0.8849    4.2400    0.0000 H   0  0  0  0  0  0  0  0  0  0  0  0
    0.6918    3.7537    0.0000 H   0  0  0  0  0  0  0  0  0  0  0  0
    1.0589    2.1450    0.0000 H   0  0  0  0  0  0  0  0  0  0  0  0
    0.5622    1.6591    0.0000 H   0  0  0  0  0  0  0  0  0  0  0  0
    1.4321    0.5659    0.0000 H   0  0  0  0  0  0  0  0  0  0  0  0
  1  2  1  0  0  0  0
  1 24  1  0  0  0  0
  1 25  1  0  0  0  0
  1 26  1  0  0  0  0
  2  3  1  0  0  0  0
  2  4  1  0  0  0  0
  2 21  1  0  0  0  0
  3 27  1  0  0  0  0
  3 28  1  0  0  0  0
  3 29  1  0  0  0  0
  5  4  1  0  0  0  0
  4 30  1  0  0  0  0
  4 31  1  0  0  0  0
  5  6  1  6  0  0  0
  5 12  1  0  0  0  0
  5 23  1  0  0  0  0
  6  7  1  0  0  0  0
  6 11  2  0  0  0  0
  7  8  2  0  0  0  0
  7 32  1  0  0  0  0
  8  9  1  0  0  0  0
  8 33  1  0  0  0  0
  9 10  2  0  0  0  0
  9 34  1  0  0  0  0
 10 11  1  0  0  0  0
 10 35  1  0  0  0  0
 11 36  1  0  0  0  0
 12 13  1  0  0  0  0
 12 37  1  0  0  0  0
 12 38  1  0  0  0  0
 14 13  1  0  0  0  0
 13 39  1  0  0  0  0
 13 40  1  0  0  0  0
 14 15  1  6  0  0  0
 14 21  1  0  0  0  0
 14 22  1  0  0  0  0
 15 16  1  0  0  0  0
 15 20  2  0  0  0  0
 16 17  2  0  0  0  0
 16 41  1  0  0  0  0
 17 18  1  0  0  0  0
 17 42  1  0  0  0  0
 18 19  2  0  0  0  0
 18 43  1  0  0  0  0
 19 20  1  0  0  0  0
 19 44  1  0  0  0  0
 20 45  1  0  0  0  0
 21 46  1  0  0  0  0
 21 47  1  0  0  0  0
 22 23  1  0  0  0  0
M  END
