
  Mrv171c004271813302D          

 51 54  0  0  0  0            999 V2000
   -3.5245    0.8928    0.0000 C   0  0  0  0  0  0  0  0  0  0  0  0
   -2.7420    0.6313    0.0000 C   0  0  0  0  0  0  0  0  0  0  0  0
   -2.1244    1.1782    0.0000 O   0  0  0  0  0  0  0  0  0  0  0  0
   -1.3419    0.9167    0.0000 C   0  0  1  0  0  0  0  0  0  0  0  0
   -0.6367    1.3744    0.0000 O   0  0  0  0  0  0  0  0  0  0  0  0
    0.1781    1.1037    0.0000 C   0  0  2  0  0  0  0  0  0  0  0  0
    1.1108    0.8830    0.0000 O   0  0  0  0  0  0  0  0  0  0  0  0
    1.9428    1.0960    0.0000 C   0  0  1  0  0  0  0  0  0  0  0  0
    2.6282    1.5551    0.0000 C   0  0  0  0  0  0  0  0  0  0  0  0
    2.4286    0.3982    0.0000 C   0  0  0  0  0  0  0  0  0  0  0  0
    1.9398   -0.2908    0.0000 C   0  0  0  0  0  0  0  0  0  0  0  0
    1.0823   -0.3020    0.0000 C   0  0  1  0  0  0  0  0  0  0  0  0
    0.9659   -1.1493    0.0000 C   0  0  1  0  0  0  0  0  0  0  0  0
    1.6543   -1.6039    0.0000 C   0  0  0  0  0  0  0  0  0  0  0  0
    0.2467   -1.5805    0.0000 C   0  0  1  0  0  0  0  0  0  0  0  0
    0.1264   -2.3967    0.0000 O   0  0  0  0  0  0  0  0  0  0  0  0
   -0.3168   -0.9610    0.0000 C   0  0  0  0  0  0  0  0  0  0  0  0
   -0.2207   -0.1060    0.0000 C   0  0  1  0  0  0  0  0  0  0  0  0
   -1.0533    0.1266    0.0000 C   0  0  1  0  0  0  0  0  0  0  0  0
   -1.6136   -0.4789    0.0000 C   0  0  0  0  0  0  0  0  0  0  0  0
    0.5216    0.3934    0.0000 C   0  0  1  0  0  0  0  0  0  0  0  0
    0.7602    1.3442    0.0000 O   0  0  0  0  0  0  0  0  0  0  0  0
    1.4864    1.8046    0.0000 O   0  0  0  0  0  0  0  0  0  0  0  0
   -1.9171    0.3254    0.0000 H   0  0  0  0  0  0  0  0  0  0  0  0
    1.4334    0.4446    0.0000 H   0  0  0  0  0  0  0  0  0  0  0  0
   -0.5425   -1.8210    0.0000 H   0  0  0  0  0  0  0  0  0  0  0  0
   -0.8380    0.9230    0.0000 H   0  0  0  0  0  0  0  0  0  0  0  0
   -3.2630    1.6752    0.0000 H   0  0  0  0  0  0  0  0  0  0  0  0
   -4.3070    1.1542    0.0000 H   0  0  0  0  0  0  0  0  0  0  0  0
   -3.7860    0.1103    0.0000 H   0  0  0  0  0  0  0  0  0  0  0  0
   -2.9576   -0.1651    0.0000 H   0  0  0  0  0  0  0  0  0  0  0  0
   -2.2320   -0.0171    0.0000 H   0  0  0  0  0  0  0  0  0  0  0  0
    0.1488    1.9282    0.0000 H   0  0  0  0  0  0  0  0  0  0  0  0
    3.0874    0.8696    0.0000 H   0  0  0  0  0  0  0  0  0  0  0  0
    3.3137    2.0142    0.0000 H   0  0  0  0  0  0  0  0  0  0  0  0
    2.1691    2.2405    0.0000 H   0  0  0  0  0  0  0  0  0  0  0  0
    2.6875   -0.3851    0.0000 H   0  0  0  0  0  0  0  0  0  0  0  0
    3.2129    0.1425    0.0000 H   0  0  0  0  0  0  0  0  0  0  0  0
    1.5038   -0.9912    0.0000 H   0  0  0  0  0  0  0  0  0  0  0  0
    2.2944   -1.0357    0.0000 H   0  0  0  0  0  0  0  0  0  0  0  0
    0.2774   -0.6947    0.0000 H   0  0  0  0  0  0  0  0  0  0  0  0
    0.9421   -2.0204    0.0000 H   0  0  0  0  0  0  0  0  0  0  0  0
    1.7130   -2.4268    0.0000 H   0  0  0  0  0  0  0  0  0  0  0  0
    2.4184   -1.9151    0.0000 H   0  0  0  0  0  0  0  0  0  0  0  0
    0.0119   -3.2137    0.0000 H   0  0  0  0  0  0  0  0  0  0  0  0
   -0.9564   -0.4398    0.0000 H   0  0  0  0  0  0  0  0  0  0  0  0
   -1.1012   -1.2167    0.0000 H   0  0  0  0  0  0  0  0  0  0  0  0
   -0.3520    0.7084    0.0000 H   0  0  0  0  0  0  0  0  0  0  0  0
   -2.4370   -0.5312    0.0000 H   0  0  0  0  0  0  0  0  0  0  0  0
   -2.2069   -1.0522    0.0000 H   0  0  0  0  0  0  0  0  0  0  0  0
   -1.6942   -1.3000    0.0000 H   0  0  0  0  0  0  0  0  0  0  0  0
  1  2  1  0  0  0  0
  1 28  1  0  0  0  0
  1 29  1  0  0  0  0
  1 30  1  0  0  0  0
  2  3  1  0  0  0  0
  2 31  1  0  0  0  0
  2 32  1  0  0  0  0
  4  3  1  1  0  0  0
  4 24  1  6  0  0  0
  4  5  1  0  0  0  0
 19  4  1  1  0  0  0
  6  5  1  0  0  0  0
  6  7  1  0  0  0  0
 21  6  1  0  0  0  0
  6 33  1  1  0  0  0
  8  7  1  0  0  0  0
  8  9  1  1  0  0  0
  8 10  1  0  0  0  0
  8 23  1  0  0  0  0
  9 34  1  0  0  0  0
  9 35  1  0  0  0  0
  9 36  1  0  0  0  0
 10 11  1  0  0  0  0
 10 37  1  0  0  0  0
 10 38  1  0  0  0  0
 12 11  1  0  0  0  0
 11 39  1  0  0  0  0
 11 40  1  0  0  0  0
 12 25  1  6  0  0  0
 12 13  1  0  0  0  0
 21 12  1  0  0  0  0
 13 14  1  0  0  0  0
 13 15  1  1  0  0  0
 13 41  1  6  0  0  0
 14 42  1  0  0  0  0
 14 43  1  0  0  0  0
 14 44  1  0  0  0  0
 15 26  1  6  0  0  0
 15 16  1  1  0  0  0
 15 17  1  0  0  0  0
 16 45  1  0  0  0  0
 18 17  1  0  0  0  0
 17 46  1  0  0  0  0
 17 47  1  0  0  0  0
 18 19  1  0  0  0  0
 21 18  1  0  0  0  0
 18 48  1  6  0  0  0
 19 27  1  6  0  0  0
 19 20  1  0  0  0  0
 20 49  1  0  0  0  0
 20 50  1  0  0  0  0
 20 51  1  0  0  0  0
 21 22  1  6  0  0  0
 22 23  1  0  0  0  0
M  END
