
  Mrv171c004271813302D          

 63 67  0  0  0  0            999 V2000
    1.4978    2.4327    0.0000 C   0  0  0  0  0  0  0  0  0  0  0  0
    0.9474    1.8156    0.0000 C   0  0  0  0  0  0  0  0  0  0  0  0
    1.0354    0.9745    0.0000 C   0  0  1  0  0  0  0  0  0  0  0  0
    0.2195    0.7000    0.0000 C   0  0  1  0  0  0  0  0  0  0  0  0
   -0.3488    1.2981    0.0000 C   0  0  0  0  0  0  0  0  0  0  0  0
   -0.0923   -0.0904    0.0000 C   0  0  1  0  0  0  0  0  0  0  0  0
   -0.8771   -0.3446    0.0000 O   0  0  0  0  0  0  0  0  0  0  0  0
   -1.0494   -1.1514    0.0000 C   0  0  1  0  0  0  0  0  0  0  0  0
   -0.4369   -1.7040    0.0000 C   0  0  0  0  0  0  0  0  0  0  0  0
   -1.8343   -1.4056    0.0000 C   0  0  0  0  0  0  0  0  0  0  0  0
   -2.0066   -2.2124    0.0000 C   0  0  0  0  0  0  0  0  0  0  0  0
   -2.7915   -2.4666    0.0000 C   0  0  0  0  0  0  0  0  0  0  0  0
   -3.4040   -1.9139    0.0000 C   0  0  0  0  0  0  0  0  0  0  0  0
   -4.1889   -2.1681    0.0000 C   0  0  0  0  0  0  0  0  0  0  0  0
   -4.9738   -2.4223    0.0000 F   0  0  0  0  0  0  0  0  0  0  0  0
   -3.9347   -2.9530    0.0000 F   0  0  0  0  0  0  0  0  0  0  0  0
   -4.4431   -1.3833    0.0000 F   0  0  0  0  0  0  0  0  0  0  0  0
   -3.2317   -1.1071    0.0000 C   0  0  0  0  0  0  0  0  0  0  0  0
   -2.4469   -0.8530    0.0000 C   0  0  0  0  0  0  0  0  0  0  0  0
    0.6174   -0.5440    0.0000 O   0  0  0  0  0  0  0  0  0  0  0  0
    1.4457   -0.2470    0.0000 C   0  0  2  0  0  0  0  0  0  0  0  0
    2.3810    0.0030    0.0000 O   0  0  0  0  0  0  0  0  0  0  0  0
    3.1938   -0.2821    0.0000 C   0  0  1  0  0  0  0  0  0  0  0  0
    3.8642   -0.7629    0.0000 C   0  0  0  0  0  0  0  0  0  0  0  0
    3.6977    0.4176    0.0000 C   0  0  0  0  0  0  0  0  0  0  0  0
    3.2135    1.1215    0.0000 C   0  0  0  0  0  0  0  0  0  0  0  0
    2.3552    1.1782    0.0000 C   0  0  1  0  0  0  0  0  0  0  0  0
    2.2315    2.0273    0.0000 C   0  0  1  0  0  0  0  0  0  0  0  0
    2.9099    2.4968    0.0000 C   0  0  0  0  0  0  0  0  0  0  0  0
    1.7754    0.4835    0.0000 C   0  0  1  0  0  0  0  0  0  0  0  0
    2.0241   -0.4474    0.0000 O   0  0  0  0  0  0  0  0  0  0  0  0
    2.6940   -0.9818    0.0000 O   0  0  0  0  0  0  0  0  0  0  0  0
    1.7651    3.2132    0.0000 H   0  0  0  0  0  0  0  0  0  0  0  0
    0.9871    3.0805    0.0000 H   0  0  0  0  0  0  0  0  0  0  0  0
    0.4182    1.5007    0.0000 H   0  0  0  0  0  0  0  0  0  0  0  0
   -0.1974   -0.9087    0.0000 H   0  0  0  0  0  0  0  0  0  0  0  0
    1.4501   -1.0720    0.0000 H   0  0  0  0  0  0  0  0  0  0  0  0
    1.5613    1.4026    0.0000 H   0  0  0  0  0  0  0  0  0  0  0  0
    0.3458    2.3802    0.0000 H   0  0  0  0  0  0  0  0  0  0  0  0
    0.1293    1.7091    0.0000 H   0  0  0  0  0  0  0  0  0  0  0  0
    0.9279    0.1566    0.0000 H   0  0  0  0  0  0  0  0  0  0  0  0
   -0.6160    2.0786    0.0000 H   0  0  0  0  0  0  0  0  0  0  0  0
   -1.1727    1.3397    0.0000 H   0  0  0  0  0  0  0  0  0  0  0  0
   -0.6932    0.5484    0.0000 H   0  0  0  0  0  0  0  0  0  0  0  0
   -1.2217   -1.9582    0.0000 H   0  0  0  0  0  0  0  0  0  0  0  0
   -0.6257   -2.5071    0.0000 H   0  0  0  0  0  0  0  0  0  0  0  0
    0.1525   -2.2813    0.0000 H   0  0  0  0  0  0  0  0  0  0  0  0
    0.3621   -1.4986    0.0000 H   0  0  0  0  0  0  0  0  0  0  0  0
   -1.7524   -2.9972    0.0000 H   0  0  0  0  0  0  0  0  0  0  0  0
   -2.9638   -3.2734    0.0000 H   0  0  0  0  0  0  0  0  0  0  0  0
   -3.8443   -0.5545    0.0000 H   0  0  0  0  0  0  0  0  0  0  0  0
   -2.2746   -0.0461    0.0000 H   0  0  0  0  0  0  0  0  0  0  0  0
    3.3835   -1.4333    0.0000 H   0  0  0  0  0  0  0  0  0  0  0  0
    4.5347   -1.2437    0.0000 H   0  0  0  0  0  0  0  0  0  0  0  0
    4.3450   -0.0925    0.0000 H   0  0  0  0  0  0  0  0  0  0  0  0
    4.4906    0.6452    0.0000 H   0  0  0  0  0  0  0  0  0  0  0  0
    3.9762    1.1942    0.0000 H   0  0  0  0  0  0  0  0  0  0  0  0
    3.2016    1.9464    0.0000 H   0  0  0  0  0  0  0  0  0  0  0  0
    2.8057    0.4043    0.0000 H   0  0  0  0  0  0  0  0  0  0  0  0
    2.1900    2.8513    0.0000 H   0  0  0  0  0  0  0  0  0  0  0  0
    3.7267    2.3803    0.0000 H   0  0  0  0  0  0  0  0  0  0  0  0
    3.4846    3.0888    0.0000 H   0  0  0  0  0  0  0  0  0  0  0  0
    2.7693    3.3097    0.0000 H   0  0  0  0  0  0  0  0  0  0  0  0
  1 33  1  0  0  0  0
  1 34  1  0  0  0  0
  1  2  1  0  0  0  0
 28  1  1  0  0  0  0
  3  2  1  0  0  0  0
  2 39  1  0  0  0  0
  2 40  1  0  0  0  0
  3  4  1  0  0  0  0
 30  3  1  0  0  0  0
  3 41  1  1  0  0  0
  4 35  1  1  0  0  0
  4  5  1  6  0  0  0
  4  6  1  0  0  0  0
  5 42  1  0  0  0  0
  5 43  1  0  0  0  0
  5 44  1  0  0  0  0
  6 36  1  1  0  0  0
  6  7  1  6  0  0  0
  6 20  1  0  0  0  0
  8  7  1  0  0  0  0
  8  9  1  0  0  0  0
  8 10  1  0  0  0  0
  8 45  1  6  0  0  0
  9 46  1  0  0  0  0
  9 47  1  0  0  0  0
  9 48  1  0  0  0  0
 10 11  1  0  0  0  0
 10 19  2  0  0  0  0
 11 12  2  0  0  0  0
 11 49  1  0  0  0  0
 12 13  1  0  0  0  0
 12 50  1  0  0  0  0
 13 14  1  0  0  0  0
 13 18  2  0  0  0  0
 14 15  1  0  0  0  0
 14 16  1  0  0  0  0
 14 17  1  0  0  0  0
 18 19  1  0  0  0  0
 18 51  1  0  0  0  0
 19 52  1  0  0  0  0
 21 20  1  0  0  0  0
 21 37  1  6  0  0  0
 21 22  1  0  0  0  0
 30 21  1  0  0  0  0
 23 22  1  0  0  0  0
 23 24  1  6  0  0  0
 23 25  1  0  0  0  0
 23 32  1  0  0  0  0
 24 53  1  0  0  0  0
 24 54  1  0  0  0  0
 24 55  1  0  0  0  0
 25 26  1  0  0  0  0
 25 56  1  0  0  0  0
 25 57  1  0  0  0  0
 27 26  1  0  0  0  0
 26 58  1  0  0  0  0
 26 59  1  0  0  0  0
 27 38  1  1  0  0  0
 27 28  1  0  0  0  0
 30 27  1  0  0  0  0
 28 29  1  6  0  0  0
 28 60  1  1  0  0  0
 29 61  1  0  0  0  0
 29 62  1  0  0  0  0
 29 63  1  0  0  0  0
 30 31  1  1  0  0  0
 31 32  1  0  0  0  0
M  END
