
  Mrv171c004271813302D          

 51 54  0  0  0  0            999 V2000
    0.0777    1.4960    0.0000 C   0  0  0  0  0  0  0  0  0  0  0  0
   -0.4727    0.8789    0.0000 C   0  0  0  0  0  0  0  0  0  0  0  0
   -0.3847    0.0378    0.0000 C   0  0  2  0  0  0  0  0  0  0  0  0
   -1.2006   -0.2367    0.0000 C   0  0  1  0  0  0  0  0  0  0  0  0
   -1.7689    0.3614    0.0000 C   0  0  0  0  0  0  0  0  0  0  0  0
   -1.5124   -1.0271    0.0000 C   0  0  1  0  0  0  0  0  0  0  0  0
   -2.2973   -1.2813    0.0000 O   0  0  0  0  0  0  0  0  0  0  0  0
   -2.9099   -0.7287    0.0000 C   0  0  0  0  0  0  0  0  0  0  0  0
   -3.6947   -0.9828    0.0000 C   0  0  0  0  0  0  0  0  0  0  0  0
   -0.8027   -1.4807    0.0000 O   0  0  0  0  0  0  0  0  0  0  0  0
    0.0256   -1.1837    0.0000 C   0  0  1  0  0  0  0  0  0  0  0  0
    0.9608   -0.9337    0.0000 O   0  0  0  0  0  0  0  0  0  0  0  0
    1.7737   -1.2188    0.0000 C   0  0  1  0  0  0  0  0  0  0  0  0
    2.4441   -1.6996    0.0000 C   0  0  0  0  0  0  0  0  0  0  0  0
    1.2739   -1.9185    0.0000 O   0  0  0  0  0  0  0  0  0  0  0  0
    0.6040   -1.3841    0.0000 O   0  0  0  0  0  0  0  0  0  0  0  0
    0.3552   -0.4532    0.0000 C   0  0  1  0  0  0  0  0  0  0  0  0
    0.9351    0.2415    0.0000 C   0  0  1  0  0  0  0  0  0  0  0  0
    1.7934    0.1848    0.0000 C   0  0  0  0  0  0  0  0  0  0  0  0
    2.2775   -0.5191    0.0000 C   0  0  1  0  0  0  0  0  0  0  0  0
    3.1025   -0.5279    0.0000 O   0  0  0  0  0  0  0  0  0  0  0  0
    0.8114    1.0906    0.0000 C   0  0  1  0  0  0  0  0  0  0  0  0
    1.4898    1.5601    0.0000 C   0  0  0  0  0  0  0  0  0  0  0  0
    0.3449    2.2765    0.0000 H   0  0  0  0  0  0  0  0  0  0  0  0
   -0.4331    2.1438    0.0000 H   0  0  0  0  0  0  0  0  0  0  0  0
   -1.0020    0.5640    0.0000 H   0  0  0  0  0  0  0  0  0  0  0  0
   -1.6175   -1.8454    0.0000 H   0  0  0  0  0  0  0  0  0  0  0  0
    0.1412    0.4659    0.0000 H   0  0  0  0  0  0  0  0  0  0  0  0
   -1.0743    1.4435    0.0000 H   0  0  0  0  0  0  0  0  0  0  0  0
   -1.2908    0.7724    0.0000 H   0  0  0  0  0  0  0  0  0  0  0  0
   -0.4922   -0.7801    0.0000 H   0  0  0  0  0  0  0  0  0  0  0  0
   -2.0361    1.1419    0.0000 H   0  0  0  0  0  0  0  0  0  0  0  0
   -2.5929    0.4030    0.0000 H   0  0  0  0  0  0  0  0  0  0  0  0
   -2.1133   -0.3883    0.0000 H   0  0  0  0  0  0  0  0  0  0  0  0
   -2.7866    0.0871    0.0000 H   0  0  0  0  0  0  0  0  0  0  0  0
   -3.5388   -0.1948    0.0000 H   0  0  0  0  0  0  0  0  0  0  0  0
   -4.4336   -0.6160    0.0000 H   0  0  0  0  0  0  0  0  0  0  0  0
   -4.2427   -1.5996    0.0000 H   0  0  0  0  0  0  0  0  0  0  0  0
   -3.2434   -1.6735    0.0000 H   0  0  0  0  0  0  0  0  0  0  0  0
    0.0300   -2.0087    0.0000 H   0  0  0  0  0  0  0  0  0  0  0  0
    1.9633   -2.3700    0.0000 H   0  0  0  0  0  0  0  0  0  0  0  0
    3.1145   -2.1804    0.0000 H   0  0  0  0  0  0  0  0  0  0  0  0
    2.9249   -1.0292    0.0000 H   0  0  0  0  0  0  0  0  0  0  0  0
    2.4723    0.6535    0.0000 H   0  0  0  0  0  0  0  0  0  0  0  0
    1.8493    1.0079    0.0000 H   0  0  0  0  0  0  0  0  0  0  0  0
    2.6654    0.2090    0.0000 H   0  0  0  0  0  0  0  0  0  0  0  0
    3.9236   -0.4477    0.0000 H   0  0  0  0  0  0  0  0  0  0  0  0
    0.7699    1.9146    0.0000 H   0  0  0  0  0  0  0  0  0  0  0  0
    2.3125    1.4989    0.0000 H   0  0  0  0  0  0  0  0  0  0  0  0
    2.0373    2.1773    0.0000 H   0  0  0  0  0  0  0  0  0  0  0  0
    1.3309    2.3697    0.0000 H   0  0  0  0  0  0  0  0  0  0  0  0
  1 24  1  0  0  0  0
  1 25  1  0  0  0  0
  1  2  1  0  0  0  0
 22  1  1  0  0  0  0
  3  2  1  0  0  0  0
  2 29  1  0  0  0  0
  2 30  1  0  0  0  0
  3  4  1  0  0  0  0
 17  3  1  0  0  0  0
  3 31  1  6  0  0  0
  4 26  1  1  0  0  0
  4  5  1  6  0  0  0
  4  6  1  0  0  0  0
  5 32  1  0  0  0  0
  5 33  1  0  0  0  0
  5 34  1  0  0  0  0
  6 27  1  1  0  0  0
  6  7  1  6  0  0  0
  6 10  1  0  0  0  0
  7  8  1  0  0  0  0
  8  9  1  0  0  0  0
  8 35  1  0  0  0  0
  8 36  1  0  0  0  0
  9 37  1  0  0  0  0
  9 38  1  0  0  0  0
  9 39  1  0  0  0  0
 11 10  1  0  0  0  0
 11 12  1  0  0  0  0
 17 11  1  0  0  0  0
 11 40  1  1  0  0  0
 13 12  1  0  0  0  0
 13 14  1  1  0  0  0
 13 15  1  0  0  0  0
 13 20  1  0  0  0  0
 14 41  1  0  0  0  0
 14 42  1  0  0  0  0
 14 43  1  0  0  0  0
 15 16  1  0  0  0  0
 17 16  1  6  0  0  0
 17 18  1  0  0  0  0
 18 28  1  1  0  0  0
 18 19  1  0  0  0  0
 18 22  1  0  0  0  0
 20 19  1  0  0  0  0
 19 44  1  0  0  0  0
 19 45  1  0  0  0  0
 20 21  1  0  0  0  0
 20 46  1  6  0  0  0
 21 47  1  0  0  0  0
 22 23  1  6  0  0  0
 22 48  1  1  0  0  0
 23 49  1  0  0  0  0
 23 50  1  0  0  0  0
 23 51  1  0  0  0  0
M  END
