
  Mrv171c004271813302D          

 53 57  0  0  0  0            999 V2000
   -0.8447    0.7088    0.0000 C   0  0  0  0  0  0  0  0  0  0  0  0
   -1.1564   -0.0816    0.0000 C   0  0  0  0  0  0  0  0  0  0  0  0
   -1.9413   -0.3358    0.0000 O   0  0  0  0  0  0  0  0  0  0  0  0
   -0.4468   -0.5352    0.0000 N   0  0  0  0  0  0  0  0  0  0  0  0
   -0.5392   -1.3550    0.0000 C   0  0  0  0  0  0  0  0  0  0  0  0
   -1.2953   -1.6849    0.0000 C   0  0  0  0  0  0  0  0  0  0  0  0
   -1.3877   -2.5047    0.0000 C   0  0  0  0  0  0  0  0  0  0  0  0
   -2.1439   -2.8346    0.0000 C   0  0  0  0  0  0  0  0  0  0  0  0
   -2.8077   -2.3446    0.0000 C   0  0  0  0  0  0  0  0  0  0  0  0
   -3.5639   -2.6745    0.0000 Cl  0  0  0  0  0  0  0  0  0  0  0  0
   -2.7153   -1.5248    0.0000 C   0  0  0  0  0  0  0  0  0  0  0  0
   -1.9591   -1.1949    0.0000 C   0  0  0  0  0  0  0  0  0  0  0  0
    0.3816   -0.2383    0.0000 C   0  0  2  0  0  0  0  0  0  0  0  0
    1.3168    0.0118    0.0000 O   0  0  0  0  0  0  0  0  0  0  0  0
    2.1297   -0.2734    0.0000 C   0  0  1  0  0  0  0  0  0  0  0  0
    2.8001   -0.7541    0.0000 C   0  0  0  0  0  0  0  0  0  0  0  0
    2.6335    0.4264    0.0000 C   0  0  0  0  0  0  0  0  0  0  0  0
    2.1494    1.1302    0.0000 C   0  0  0  0  0  0  0  0  0  0  0  0
    1.2911    1.1870    0.0000 C   0  0  1  0  0  0  0  0  0  0  0  0
    1.1674    2.0361    0.0000 C   0  0  1  0  0  0  0  0  0  0  0  0
    1.8458    2.5056    0.0000 C   0  0  0  0  0  0  0  0  0  0  0  0
    0.4337    2.4414    0.0000 C   0  0  0  0  0  0  0  0  0  0  0  0
   -0.1167    1.8244    0.0000 C   0  0  0  0  0  0  0  0  0  0  0  0
   -0.0287    0.9833    0.0000 C   0  0  2  0  0  0  0  0  0  0  0  0
    0.7112    0.4923    0.0000 C   0  0  1  0  0  0  0  0  0  0  0  0
    0.9600   -0.4386    0.0000 O   0  0  0  0  0  0  0  0  0  0  0  0
    1.6299   -0.9731    0.0000 O   0  0  0  0  0  0  0  0  0  0  0  0
   -1.0995    1.4934    0.0000 H   0  0  0  0  0  0  0  0  0  0  0  0
   -1.6153    1.0034    0.0000 H   0  0  0  0  0  0  0  0  0  0  0  0
    0.4972    1.4114    0.0000 H   0  0  0  0  0  0  0  0  0  0  0  0
   -0.1659   -2.0907    0.0000 H   0  0  0  0  0  0  0  0  0  0  0  0
    0.2739   -1.4949    0.0000 H   0  0  0  0  0  0  0  0  0  0  0  0
   -0.7240   -2.9946    0.0000 H   0  0  0  0  0  0  0  0  0  0  0  0
   -2.2363   -3.6544    0.0000 H   0  0  0  0  0  0  0  0  0  0  0  0
   -3.3791   -1.0349    0.0000 H   0  0  0  0  0  0  0  0  0  0  0  0
   -1.2188   -0.8308    0.0000 H   0  0  0  0  0  0  0  0  0  0  0  0
    0.3860   -1.0633    0.0000 H   0  0  0  0  0  0  0  0  0  0  0  0
    2.3193   -1.4246    0.0000 H   0  0  0  0  0  0  0  0  0  0  0  0
    3.4705   -1.2349    0.0000 H   0  0  0  0  0  0  0  0  0  0  0  0
    3.2809   -0.0837    0.0000 H   0  0  0  0  0  0  0  0  0  0  0  0
    3.4265    0.6540    0.0000 H   0  0  0  0  0  0  0  0  0  0  0  0
    2.9121    1.2030    0.0000 H   0  0  0  0  0  0  0  0  0  0  0  0
    2.1374    1.9552    0.0000 H   0  0  0  0  0  0  0  0  0  0  0  0
    1.7415    0.4131    0.0000 H   0  0  0  0  0  0  0  0  0  0  0  0
    1.9239    1.7070    0.0000 H   0  0  0  0  0  0  0  0  0  0  0  0
    2.6645    2.6077    0.0000 H   0  0  0  0  0  0  0  0  0  0  0  0
    2.0412    3.3071    0.0000 H   0  0  0  0  0  0  0  0  0  0  0  0
    1.1660    2.9730    0.0000 H   0  0  0  0  0  0  0  0  0  0  0  0
    0.1413    3.2129    0.0000 H   0  0  0  0  0  0  0  0  0  0  0  0
   -0.3045    2.8097    0.0000 H   0  0  0  0  0  0  0  0  0  0  0  0
   -0.7183    2.3890    0.0000 H   0  0  0  0  0  0  0  0  0  0  0  0
   -0.9348    1.7179    0.0000 H   0  0  0  0  0  0  0  0  0  0  0  0
   -0.1362    0.1654    0.0000 H   0  0  0  0  0  0  0  0  0  0  0  0
  1 28  1  0  0  0  0
  1 29  1  0  0  0  0
  1  2  1  0  0  0  0
 24  1  1  0  0  0  0
  2  3  2  0  0  0  0
  2  4  1  0  0  0  0
  4  5  1  0  0  0  0
 13  4  1  0  0  0  0
  5  6  1  0  0  0  0
  5 31  1  0  0  0  0
  5 32  1  0  0  0  0
  6  7  1  0  0  0  0
  6 12  2  0  0  0  0
  7  8  2  0  0  0  0
  7 33  1  0  0  0  0
  8  9  1  0  0  0  0
  8 34  1  0  0  0  0
  9 10  1  0  0  0  0
  9 11  2  0  0  0  0
 11 12  1  0  0  0  0
 11 35  1  0  0  0  0
 12 36  1  0  0  0  0
 13 14  1  0  0  0  0
 25 13  1  0  0  0  0
 13 37  1  6  0  0  0
 15 14  1  0  0  0  0
 15 16  1  6  0  0  0
 15 17  1  0  0  0  0
 15 27  1  0  0  0  0
 16 38  1  0  0  0  0
 16 39  1  0  0  0  0
 16 40  1  0  0  0  0
 17 18  1  0  0  0  0
 17 41  1  0  0  0  0
 17 42  1  0  0  0  0
 19 18  1  0  0  0  0
 18 43  1  0  0  0  0
 18 44  1  0  0  0  0
 19 30  1  1  0  0  0
 19 20  1  0  0  0  0
 25 19  1  0  0  0  0
 20 21  1  6  0  0  0
 20 22  1  0  0  0  0
 20 45  1  1  0  0  0
 21 46  1  0  0  0  0
 21 47  1  0  0  0  0
 21 48  1  0  0  0  0
 22 23  1  0  0  0  0
 22 49  1  0  0  0  0
 22 50  1  0  0  0  0
 24 23  1  0  0  0  0
 23 51  1  0  0  0  0
 23 52  1  0  0  0  0
 25 24  1  0  0  0  0
 24 53  1  1  0  0  0
 25 26  1  1  0  0  0
 26 27  1  0  0  0  0
M  END
